 ****** HSPICE -- R-2020.12-1 linux64 (Jan 03 2021 6798279) ******              
  Copyright (c) 1986 - 2023 by Synopsys, Inc. All Rights Reserved.              
  This software and the associated documentation are proprietary
  to Synopsys, Inc. This software may only be used in accordance
  with the terms and conditions of a written license agreement with
  Synopsys, Inc. All other use, reproduction, or distribution of
  this software is strictly prohibited.
  Input File: pufs.sp                                                           
  Command line options: /umbc/software/synopsys/hspice/R-2020.12-1/hspice/linux64/hspice -i pufs.sp -o pufs.lis
  Start time: Wed Apr 12 18:19:27 2023
 lic:  
 lic: FLEXlm: SDK_12.9 
 lic: USER:   jkielty1             HOSTNAME: cadence2.cs.umbc.edu 
 lic: HOSTID: 005056950d98         PID:      3828148 
 lic: Using FLEXlm license file: 
 lic: 27020@license5.umbc.edu 
 lic: Checkout 1 hspice 
 lic: License/Maintenance for hspice will expire on 22-feb-2024/2022.06 
 lic: 3(in_use)/100(total) FLOATING license(s) on SERVER 27020@license5.umbc.edu 
 lic:   
  **warning** (pufs.sp:8) runlvl smaller than 5, reset to 5 when accurate turned on
  **info** Monte Carlo simulation is detected, increase number of measure digits to 7 for Monte Carlo post processing.
  **info** option measform has been reset to 1 to reduce measure file storage and enable advanced Monte Carlo data mining.
  **warning** (ALL_GATES_HSPICE.txt:18) Global net name "vdd" in subckt pin list. The pin will be connected to the local net. Recommend to not use global net names in subckt pin lists.

 **warning**  runlvl smaller than 5, reset to 5 when accurate turned on
  **info** (pufs.sp:108) DC voltage reset to initial transient source value in source 0:vsig. new dc=0.0000D+00
  **warning** (pmos_vtl_pv:xarbiter_puf_0.xbuf_h_srl.m_i_10 (pufs.sp:27)) Warning:  Acde = 0.300892 may be too small in BSIM4 model with w=9.45e-07 l=5e-08.
*** info *** index=1 is a nominal sample in Monte Carlo.
*** info *** The MCG Random Number Generator and .Option Use_Agauss_Format = Yes are set as defaults starting with HSPICE L-2016.06 to address the needs of advanced technology nodes with large samples and/or large circuits, particularly for distributed processing.
*** Should you want backward compatibility, please use the following options:
For traditional Gaussian style variations, use .Option Random_Generator = 3LC;
For Variation Block style variations, use .Option Random_Generator = MOA.
  
      

MONTE CARLO DEFINITIONS


Option sampling_method was set, variation block and agauss format variation are in effect.

Random number generator is MCG            , and seed =      1, stream =   1
 **info** set option symb=1 internally to help for convergence.
 *****************************************************************
 ******  option summary
 ******
 runlvl  = 5         bypass  = 2.0000    
  Opening plot unit= 15
 file=pufs.pa0


   *** monte carlo  index =            1 ***

 ******
 * puf simulation

 ****** transient analysis tnom=  25.000 temp=  75.000 ******
x

 time         voltage    voltage    voltage    voltage   
             q0         q1         q2         q3         
  0.0000e+00  1.100e+00  1.100e+00  1.100e+00  1.100e+00 
  5.0000e-10  1.100e+00  1.100e+00  1.100e+00  1.100e+00 
  1.0000e-09  1.100e+00  1.100e+00  1.100e+00  1.100e+00 
  1.5000e-09  6.057e-01  6.057e-01  6.057e-01  6.057e-01 
  2.0000e-09  5.939e-01  5.939e-01  5.939e-01  5.939e-01 
  2.5000e-09  5.938e-01  5.938e-01  5.938e-01  5.938e-01 
  3.0000e-09  5.938e-01  5.938e-01  5.938e-01  5.938e-01 
  3.5000e-09  5.938e-01  5.938e-01  5.938e-01  5.938e-01 
  4.0000e-09  1.096e+00  1.096e+00  1.096e+00  1.096e+00 
  4.5000e-09  1.100e+00  1.100e+00  1.100e+00  1.100e+00 
  5.0000e-09  1.100e+00  1.100e+00  1.100e+00  1.100e+00 
  5.5000e-09  1.100e+00  1.100e+00  1.100e+00  1.100e+00 
  6.0000e-09  1.100e+00  1.100e+00  1.100e+00  1.100e+00 
  6.5000e-09  6.057e-01  6.057e-01  6.057e-01  6.057e-01 
  7.0000e-09  5.939e-01  5.939e-01  5.939e-01  5.939e-01 
  7.5000e-09  5.938e-01  5.938e-01  5.938e-01  5.938e-01 
  8.0000e-09  5.938e-01  5.938e-01  5.938e-01  5.938e-01 
  8.5000e-09  5.938e-01  5.938e-01  5.938e-01  5.938e-01 
  9.0000e-09  1.096e+00  1.096e+00  1.096e+00  1.096e+00 
  9.5000e-09  1.100e+00  1.100e+00  1.100e+00  1.100e+00 
  1.0000e-08  1.100e+00  1.100e+00  1.100e+00  1.100e+00 
  1.0500e-08  1.100e+00  1.100e+00  1.100e+00  1.100e+00 
  1.1000e-08  1.100e+00  1.100e+00  1.100e+00  1.100e+00 
  1.1500e-08  6.059e-01  6.059e-01  6.059e-01  6.059e-01 
  1.2000e-08  5.939e-01  5.939e-01  5.939e-01  5.939e-01 
  1.2500e-08  5.938e-01  5.938e-01  5.938e-01  5.938e-01 
  1.3000e-08  5.938e-01  5.938e-01  5.938e-01  5.938e-01 
  1.3500e-08  5.937e-01  5.937e-01  5.937e-01  5.937e-01 
  1.4000e-08  1.097e+00  1.097e+00  1.097e+00  1.097e+00 
  1.4500e-08  1.100e+00  1.100e+00  1.100e+00  1.100e+00 
  1.5000e-08  1.100e+00  1.100e+00  1.100e+00  1.100e+00 
  1.5500e-08  1.100e+00  1.100e+00  1.100e+00  1.100e+00 
  1.6000e-08  1.100e+00  1.100e+00  1.100e+00  1.100e+00 
  1.6500e-08  6.059e-01  6.059e-01  6.059e-01  6.059e-01 
  1.7000e-08  5.939e-01  5.939e-01  5.939e-01  5.939e-01 
  1.7500e-08  5.938e-01  5.938e-01  5.938e-01  5.938e-01 
  1.8000e-08  5.938e-01  5.938e-01  5.938e-01  5.938e-01 
  1.8500e-08  5.933e-01  5.933e-01  5.933e-01  5.933e-01 
  1.9000e-08  1.096e+00  1.096e+00  1.096e+00  1.096e+00 
  1.9500e-08  1.100e+00  1.100e+00  1.100e+00  1.100e+00 
  2.0000e-08  1.100e+00  1.100e+00  1.100e+00  1.100e+00 
  2.0500e-08  1.100e+00  1.100e+00  1.100e+00  1.100e+00 
  2.1000e-08  1.100e+00  1.100e+00  1.100e+00  1.100e+00 
  2.1500e-08  6.055e-01  6.055e-01  6.055e-01  6.055e-01 
  2.2000e-08  5.939e-01  5.939e-01  5.939e-01  5.939e-01 
  2.2500e-08  5.942e-01  5.942e-01  5.942e-01  5.942e-01 
  2.3000e-08  6.075e-01  6.075e-01  6.075e-01  6.075e-01 
  2.3500e-08  9.034e-01  9.034e-01  9.034e-01  9.034e-01 
  2.4000e-08  1.100e+00  1.100e+00  1.100e+00  1.100e+00 
  2.4500e-08  1.100e+00  1.100e+00  1.100e+00  1.100e+00 
  2.5000e-08  1.100e+00  1.100e+00  1.100e+00  1.100e+00 
  2.5500e-08  1.100e+00  1.100e+00  1.100e+00  1.100e+00 
  2.6000e-08  1.100e+00  1.100e+00  1.100e+00  1.100e+00 
  2.6500e-08  6.054e-01  6.054e-01  6.054e-01  6.054e-01 
  2.7000e-08  5.939e-01  5.939e-01  5.939e-01  5.939e-01 
  2.7500e-08  5.908e-01  5.908e-01  5.908e-01  5.908e-01 
  2.8000e-08  5.274e-01  5.274e-01  5.274e-01  5.274e-01 
  2.8500e-08  8.395e-02  8.395e-02  8.395e-02  8.395e-02 
  2.9000e-08  1.082e+00  1.082e+00  1.082e+00  1.082e+00 
  2.9500e-08  1.100e+00  1.100e+00  1.100e+00  1.100e+00 
  3.0000e-08  1.100e+00  1.100e+00  1.100e+00  1.100e+00 
  3.0500e-08  1.100e+00  1.100e+00  1.100e+00  1.100e+00 
  3.1000e-08  1.100e+00  1.100e+00  1.100e+00  1.100e+00 
  3.1500e-08  6.058e-01  6.058e-01  6.058e-01  6.058e-01 
  3.2000e-08  5.940e-01  5.940e-01  5.940e-01  5.940e-01 
  3.2500e-08  5.981e-01  5.981e-01  5.981e-01  5.981e-01 
  3.3000e-08  7.067e-01  7.067e-01  7.067e-01  7.067e-01 
  3.3500e-08  1.091e+00  1.091e+00  1.091e+00  1.091e+00 
  3.4000e-08  1.100e+00  1.100e+00  1.100e+00  1.100e+00 
  3.4500e-08  1.100e+00  1.100e+00  1.100e+00  1.100e+00 
  3.5000e-08  1.100e+00  1.100e+00  1.100e+00  1.100e+00 
  3.5500e-08  1.100e+00  1.100e+00  1.100e+00  1.100e+00 
  3.6000e-08  1.100e+00  1.100e+00  1.100e+00  1.100e+00 
  3.6500e-08  6.056e-01  6.056e-01  6.056e-01  6.056e-01 
  3.7000e-08  5.939e-01  5.939e-01  5.939e-01  5.939e-01 
  3.7500e-08  5.909e-01  5.909e-01  5.909e-01  5.909e-01 
  3.8000e-08  5.269e-01  5.269e-01  5.269e-01  5.269e-01 
  3.8500e-08  8.343e-02  8.343e-02  8.343e-02  8.343e-02 
  3.9000e-08  1.082e+00  1.082e+00  1.082e+00  1.082e+00 
  3.9500e-08  1.100e+00  1.100e+00  1.100e+00  1.100e+00 
  4.0000e-08  1.100e+00  1.100e+00  1.100e+00  1.100e+00 
  4.0500e-08  1.100e+00  1.100e+00  1.100e+00  1.100e+00 
  4.1000e-08  1.100e+00  1.100e+00  1.100e+00  1.100e+00 
  4.1500e-08  6.058e-01  6.058e-01  6.058e-01  6.058e-01 
  4.2000e-08  5.940e-01  5.940e-01  5.940e-01  5.940e-01 
  4.2500e-08  5.977e-01  5.977e-01  5.977e-01  5.977e-01 
  4.3000e-08  6.996e-01  6.996e-01  6.996e-01  6.996e-01 
  4.3500e-08  1.089e+00  1.089e+00  1.089e+00  1.089e+00 
  4.4000e-08  1.100e+00  1.100e+00  1.100e+00  1.100e+00 
  4.4500e-08  1.100e+00  1.100e+00  1.100e+00  1.100e+00 
  4.5000e-08  1.100e+00  1.100e+00  1.100e+00  1.100e+00 
  4.5500e-08  1.100e+00  1.100e+00  1.100e+00  1.100e+00 
  4.6000e-08  1.100e+00  1.100e+00  1.100e+00  1.100e+00 
  4.6500e-08  6.055e-01  6.055e-01  6.055e-01  6.055e-01 
  4.7000e-08  5.939e-01  5.939e-01  5.939e-01  5.939e-01 
  4.7500e-08  5.906e-01  5.906e-01  5.906e-01  5.906e-01 
  4.8000e-08  5.188e-01  5.188e-01  5.188e-01  5.188e-01 
  4.8500e-08  7.568e-02  7.568e-02  7.568e-02  7.568e-02 
  4.9000e-08  1.081e+00  1.081e+00  1.081e+00  1.081e+00 
  4.9500e-08  1.100e+00  1.100e+00  1.100e+00  1.100e+00 
  5.0000e-08  1.100e+00  1.100e+00  1.100e+00  1.100e+00 
  5.0500e-08  1.100e+00  1.100e+00  1.100e+00  1.100e+00 
  5.1000e-08  1.100e+00  1.100e+00  1.100e+00  1.100e+00 
  5.1500e-08  6.058e-01  6.058e-01  6.058e-01  6.058e-01 
  5.2000e-08  5.940e-01  5.940e-01  5.940e-01  5.940e-01 
  5.2500e-08  5.966e-01  5.966e-01  5.966e-01  5.966e-01 
  5.3000e-08  6.735e-01  6.735e-01  6.735e-01  6.735e-01 
  5.3500e-08  1.083e+00  1.083e+00  1.083e+00  1.083e+00 
  5.4000e-08  1.100e+00  1.100e+00  1.100e+00  1.100e+00 
  5.4500e-08  1.100e+00  1.100e+00  1.100e+00  1.100e+00 
  5.5000e-08  1.100e+00  1.100e+00  1.100e+00  1.100e+00 
  5.5500e-08  1.100e+00  1.100e+00  1.100e+00  1.100e+00 
  5.6000e-08  1.100e+00  1.100e+00  1.100e+00  1.100e+00 
  5.6500e-08  6.058e-01  6.058e-01  6.058e-01  6.058e-01 
  5.7000e-08  5.939e-01  5.939e-01  5.939e-01  5.939e-01 
  5.7500e-08  5.890e-01  5.890e-01  5.890e-01  5.890e-01 
  5.8000e-08  4.662e-01  4.662e-01  4.662e-01  4.662e-01 
  5.8500e-08  4.742e-02  4.742e-02  4.742e-02  4.742e-02 
  5.9000e-08  1.080e+00  1.080e+00  1.080e+00  1.080e+00 
  5.9500e-08  1.100e+00  1.100e+00  1.100e+00  1.100e+00 
  6.0000e-08  1.100e+00  1.100e+00  1.100e+00  1.100e+00 
  6.0500e-08  1.100e+00  1.100e+00  1.100e+00  1.100e+00 
  6.1000e-08  1.100e+00  1.100e+00  1.100e+00  1.100e+00 
  6.1500e-08  6.055e-01  6.055e-01  6.055e-01  6.055e-01 
  6.2000e-08  5.940e-01  5.940e-01  5.940e-01  5.940e-01 
  6.2500e-08  5.965e-01  5.965e-01  5.965e-01  5.965e-01 
  6.3000e-08  6.692e-01  6.692e-01  6.692e-01  6.692e-01 
  6.3500e-08  1.082e+00  1.082e+00  1.082e+00  1.082e+00 
  6.4000e-08  1.100e+00  1.100e+00  1.100e+00  1.100e+00 
  6.4500e-08  1.100e+00  1.100e+00  1.100e+00  1.100e+00 
  6.5000e-08  1.100e+00  1.100e+00  1.100e+00  1.100e+00 
  6.5500e-08  1.100e+00  1.100e+00  1.100e+00  1.100e+00 
  6.6000e-08  1.100e+00  1.100e+00  1.100e+00  1.100e+00 
  6.6500e-08  6.056e-01  6.056e-01  6.056e-01  6.056e-01 
  6.7000e-08  5.939e-01  5.939e-01  5.939e-01  5.939e-01 
  6.7500e-08  5.908e-01  5.908e-01  5.908e-01  5.908e-01 
  6.8000e-08  5.210e-01  5.210e-01  5.210e-01  5.210e-01 
  6.8500e-08  7.763e-02  7.763e-02  7.763e-02  7.763e-02 
  6.9000e-08  1.082e+00  1.082e+00  1.082e+00  1.082e+00 
  6.9500e-08  1.100e+00  1.100e+00  1.100e+00  1.100e+00 
  7.0000e-08  1.100e+00  1.100e+00  1.100e+00  1.100e+00 
  7.0500e-08  1.100e+00  1.100e+00  1.100e+00  1.100e+00 
  7.1000e-08  1.100e+00  1.100e+00  1.100e+00  1.100e+00 
  7.1500e-08  6.052e-01  6.052e-01  6.052e-01  6.052e-01 
  7.2000e-08  5.940e-01  5.940e-01  5.940e-01  5.940e-01 
  7.2500e-08  5.973e-01  5.973e-01  5.973e-01  5.973e-01 
  7.3000e-08  6.718e-01  6.718e-01  6.718e-01  6.718e-01 
  7.3500e-08  1.083e+00  1.083e+00  1.083e+00  1.083e+00 
  7.4000e-08  1.100e+00  1.100e+00  1.100e+00  1.100e+00 
  7.4500e-08  1.100e+00  1.100e+00  1.100e+00  1.100e+00 
  7.5000e-08  1.100e+00  1.100e+00  1.100e+00  1.100e+00 
y
x

 time         voltage    voltage    voltage    voltage   
             q4         q5         q6         q7         
  0.0000e+00  1.100e+00  1.100e+00  1.100e+00  1.100e+00 
  5.0000e-10  1.100e+00  1.100e+00  1.100e+00  1.100e+00 
  1.0000e-09  1.100e+00  1.100e+00  1.100e+00  1.100e+00 
  1.5000e-09  6.057e-01  6.057e-01  6.057e-01  6.057e-01 
  2.0000e-09  5.939e-01  5.939e-01  5.939e-01  5.939e-01 
  2.5000e-09  5.938e-01  5.938e-01  5.938e-01  5.938e-01 
  3.0000e-09  5.938e-01  5.938e-01  5.938e-01  5.938e-01 
  3.5000e-09  5.938e-01  5.938e-01  5.938e-01  5.938e-01 
  4.0000e-09  1.096e+00  1.096e+00  1.096e+00  1.096e+00 
  4.5000e-09  1.100e+00  1.100e+00  1.100e+00  1.100e+00 
  5.0000e-09  1.100e+00  1.100e+00  1.100e+00  1.100e+00 
  5.5000e-09  1.100e+00  1.100e+00  1.100e+00  1.100e+00 
  6.0000e-09  1.100e+00  1.100e+00  1.100e+00  1.100e+00 
  6.5000e-09  6.057e-01  6.057e-01  6.057e-01  6.057e-01 
  7.0000e-09  5.939e-01  5.939e-01  5.939e-01  5.939e-01 
  7.5000e-09  5.938e-01  5.938e-01  5.938e-01  5.938e-01 
  8.0000e-09  5.938e-01  5.938e-01  5.938e-01  5.938e-01 
  8.5000e-09  5.938e-01  5.938e-01  5.938e-01  5.938e-01 
  9.0000e-09  1.096e+00  1.096e+00  1.096e+00  1.096e+00 
  9.5000e-09  1.100e+00  1.100e+00  1.100e+00  1.100e+00 
  1.0000e-08  1.100e+00  1.100e+00  1.100e+00  1.100e+00 
  1.0500e-08  1.100e+00  1.100e+00  1.100e+00  1.100e+00 
  1.1000e-08  1.100e+00  1.100e+00  1.100e+00  1.100e+00 
  1.1500e-08  6.059e-01  6.059e-01  6.059e-01  6.059e-01 
  1.2000e-08  5.939e-01  5.939e-01  5.939e-01  5.939e-01 
  1.2500e-08  5.938e-01  5.938e-01  5.938e-01  5.938e-01 
  1.3000e-08  5.938e-01  5.938e-01  5.938e-01  5.938e-01 
  1.3500e-08  5.937e-01  5.937e-01  5.937e-01  5.937e-01 
  1.4000e-08  1.097e+00  1.097e+00  1.097e+00  1.097e+00 
  1.4500e-08  1.100e+00  1.100e+00  1.100e+00  1.100e+00 
  1.5000e-08  1.100e+00  1.100e+00  1.100e+00  1.100e+00 
  1.5500e-08  1.100e+00  1.100e+00  1.100e+00  1.100e+00 
  1.6000e-08  1.100e+00  1.100e+00  1.100e+00  1.100e+00 
  1.6500e-08  6.059e-01  6.059e-01  6.059e-01  6.059e-01 
  1.7000e-08  5.939e-01  5.939e-01  5.939e-01  5.939e-01 
  1.7500e-08  5.938e-01  5.938e-01  5.938e-01  5.938e-01 
  1.8000e-08  5.938e-01  5.938e-01  5.938e-01  5.938e-01 
  1.8500e-08  5.933e-01  5.933e-01  5.933e-01  5.933e-01 
  1.9000e-08  1.096e+00  1.096e+00  1.096e+00  1.096e+00 
  1.9500e-08  1.100e+00  1.100e+00  1.100e+00  1.100e+00 
  2.0000e-08  1.100e+00  1.100e+00  1.100e+00  1.100e+00 
  2.0500e-08  1.100e+00  1.100e+00  1.100e+00  1.100e+00 
  2.1000e-08  1.100e+00  1.100e+00  1.100e+00  1.100e+00 
  2.1500e-08  6.055e-01  6.055e-01  6.055e-01  6.055e-01 
  2.2000e-08  5.939e-01  5.939e-01  5.939e-01  5.939e-01 
  2.2500e-08  5.942e-01  5.942e-01  5.942e-01  5.942e-01 
  2.3000e-08  6.075e-01  6.075e-01  6.075e-01  6.075e-01 
  2.3500e-08  9.034e-01  9.034e-01  9.034e-01  9.034e-01 
  2.4000e-08  1.100e+00  1.100e+00  1.100e+00  1.100e+00 
  2.4500e-08  1.100e+00  1.100e+00  1.100e+00  1.100e+00 
  2.5000e-08  1.100e+00  1.100e+00  1.100e+00  1.100e+00 
  2.5500e-08  1.100e+00  1.100e+00  1.100e+00  1.100e+00 
  2.6000e-08  1.100e+00  1.100e+00  1.100e+00  1.100e+00 
  2.6500e-08  6.054e-01  6.054e-01  6.054e-01  6.054e-01 
  2.7000e-08  5.939e-01  5.939e-01  5.939e-01  5.939e-01 
  2.7500e-08  5.908e-01  5.908e-01  5.908e-01  5.908e-01 
  2.8000e-08  5.274e-01  5.274e-01  5.274e-01  5.274e-01 
  2.8500e-08  8.395e-02  8.395e-02  8.395e-02  8.395e-02 
  2.9000e-08  1.082e+00  1.082e+00  1.082e+00  1.082e+00 
  2.9500e-08  1.100e+00  1.100e+00  1.100e+00  1.100e+00 
  3.0000e-08  1.100e+00  1.100e+00  1.100e+00  1.100e+00 
  3.0500e-08  1.100e+00  1.100e+00  1.100e+00  1.100e+00 
  3.1000e-08  1.100e+00  1.100e+00  1.100e+00  1.100e+00 
  3.1500e-08  6.058e-01  6.058e-01  6.058e-01  6.058e-01 
  3.2000e-08  5.940e-01  5.940e-01  5.940e-01  5.940e-01 
  3.2500e-08  5.981e-01  5.981e-01  5.981e-01  5.981e-01 
  3.3000e-08  7.067e-01  7.067e-01  7.067e-01  7.067e-01 
  3.3500e-08  1.091e+00  1.091e+00  1.091e+00  1.091e+00 
  3.4000e-08  1.100e+00  1.100e+00  1.100e+00  1.100e+00 
  3.4500e-08  1.100e+00  1.100e+00  1.100e+00  1.100e+00 
  3.5000e-08  1.100e+00  1.100e+00  1.100e+00  1.100e+00 
  3.5500e-08  1.100e+00  1.100e+00  1.100e+00  1.100e+00 
  3.6000e-08  1.100e+00  1.100e+00  1.100e+00  1.100e+00 
  3.6500e-08  6.056e-01  6.056e-01  6.056e-01  6.056e-01 
  3.7000e-08  5.939e-01  5.939e-01  5.939e-01  5.939e-01 
  3.7500e-08  5.909e-01  5.909e-01  5.909e-01  5.909e-01 
  3.8000e-08  5.269e-01  5.269e-01  5.269e-01  5.269e-01 
  3.8500e-08  8.343e-02  8.343e-02  8.343e-02  8.343e-02 
  3.9000e-08  1.082e+00  1.082e+00  1.082e+00  1.082e+00 
  3.9500e-08  1.100e+00  1.100e+00  1.100e+00  1.100e+00 
  4.0000e-08  1.100e+00  1.100e+00  1.100e+00  1.100e+00 
  4.0500e-08  1.100e+00  1.100e+00  1.100e+00  1.100e+00 
  4.1000e-08  1.100e+00  1.100e+00  1.100e+00  1.100e+00 
  4.1500e-08  6.058e-01  6.058e-01  6.058e-01  6.058e-01 
  4.2000e-08  5.940e-01  5.940e-01  5.940e-01  5.940e-01 
  4.2500e-08  5.977e-01  5.977e-01  5.977e-01  5.977e-01 
  4.3000e-08  6.996e-01  6.996e-01  6.996e-01  6.996e-01 
  4.3500e-08  1.089e+00  1.089e+00  1.089e+00  1.089e+00 
  4.4000e-08  1.100e+00  1.100e+00  1.100e+00  1.100e+00 
  4.4500e-08  1.100e+00  1.100e+00  1.100e+00  1.100e+00 
  4.5000e-08  1.100e+00  1.100e+00  1.100e+00  1.100e+00 
  4.5500e-08  1.100e+00  1.100e+00  1.100e+00  1.100e+00 
  4.6000e-08  1.100e+00  1.100e+00  1.100e+00  1.100e+00 
  4.6500e-08  6.055e-01  6.055e-01  6.055e-01  6.055e-01 
  4.7000e-08  5.939e-01  5.939e-01  5.939e-01  5.939e-01 
  4.7500e-08  5.906e-01  5.906e-01  5.906e-01  5.906e-01 
  4.8000e-08  5.188e-01  5.188e-01  5.188e-01  5.188e-01 
  4.8500e-08  7.568e-02  7.568e-02  7.568e-02  7.568e-02 
  4.9000e-08  1.081e+00  1.081e+00  1.081e+00  1.081e+00 
  4.9500e-08  1.100e+00  1.100e+00  1.100e+00  1.100e+00 
  5.0000e-08  1.100e+00  1.100e+00  1.100e+00  1.100e+00 
  5.0500e-08  1.100e+00  1.100e+00  1.100e+00  1.100e+00 
  5.1000e-08  1.100e+00  1.100e+00  1.100e+00  1.100e+00 
  5.1500e-08  6.058e-01  6.058e-01  6.058e-01  6.058e-01 
  5.2000e-08  5.940e-01  5.940e-01  5.940e-01  5.940e-01 
  5.2500e-08  5.966e-01  5.966e-01  5.966e-01  5.966e-01 
  5.3000e-08  6.735e-01  6.735e-01  6.735e-01  6.735e-01 
  5.3500e-08  1.083e+00  1.083e+00  1.083e+00  1.083e+00 
  5.4000e-08  1.100e+00  1.100e+00  1.100e+00  1.100e+00 
  5.4500e-08  1.100e+00  1.100e+00  1.100e+00  1.100e+00 
  5.5000e-08  1.100e+00  1.100e+00  1.100e+00  1.100e+00 
  5.5500e-08  1.100e+00  1.100e+00  1.100e+00  1.100e+00 
  5.6000e-08  1.100e+00  1.100e+00  1.100e+00  1.100e+00 
  5.6500e-08  6.058e-01  6.058e-01  6.058e-01  6.058e-01 
  5.7000e-08  5.939e-01  5.939e-01  5.939e-01  5.939e-01 
  5.7500e-08  5.890e-01  5.890e-01  5.890e-01  5.890e-01 
  5.8000e-08  4.662e-01  4.662e-01  4.662e-01  4.662e-01 
  5.8500e-08  4.742e-02  4.742e-02  4.742e-02  4.742e-02 
  5.9000e-08  1.080e+00  1.080e+00  1.080e+00  1.080e+00 
  5.9500e-08  1.100e+00  1.100e+00  1.100e+00  1.100e+00 
  6.0000e-08  1.100e+00  1.100e+00  1.100e+00  1.100e+00 
  6.0500e-08  1.100e+00  1.100e+00  1.100e+00  1.100e+00 
  6.1000e-08  1.100e+00  1.100e+00  1.100e+00  1.100e+00 
  6.1500e-08  6.055e-01  6.055e-01  6.055e-01  6.055e-01 
  6.2000e-08  5.940e-01  5.940e-01  5.940e-01  5.940e-01 
  6.2500e-08  5.965e-01  5.965e-01  5.965e-01  5.965e-01 
  6.3000e-08  6.692e-01  6.692e-01  6.692e-01  6.692e-01 
  6.3500e-08  1.082e+00  1.082e+00  1.082e+00  1.082e+00 
  6.4000e-08  1.100e+00  1.100e+00  1.100e+00  1.100e+00 
  6.4500e-08  1.100e+00  1.100e+00  1.100e+00  1.100e+00 
  6.5000e-08  1.100e+00  1.100e+00  1.100e+00  1.100e+00 
  6.5500e-08  1.100e+00  1.100e+00  1.100e+00  1.100e+00 
  6.6000e-08  1.100e+00  1.100e+00  1.100e+00  1.100e+00 
  6.6500e-08  6.056e-01  6.056e-01  6.056e-01  6.056e-01 
  6.7000e-08  5.939e-01  5.939e-01  5.939e-01  5.939e-01 
  6.7500e-08  5.908e-01  5.908e-01  5.908e-01  5.908e-01 
  6.8000e-08  5.210e-01  5.210e-01  5.210e-01  5.210e-01 
  6.8500e-08  7.763e-02  7.763e-02  7.763e-02  7.763e-02 
  6.9000e-08  1.082e+00  1.082e+00  1.082e+00  1.082e+00 
  6.9500e-08  1.100e+00  1.100e+00  1.100e+00  1.100e+00 
  7.0000e-08  1.100e+00  1.100e+00  1.100e+00  1.100e+00 
  7.0500e-08  1.100e+00  1.100e+00  1.100e+00  1.100e+00 
  7.1000e-08  1.100e+00  1.100e+00  1.100e+00  1.100e+00 
  7.1500e-08  6.052e-01  6.052e-01  6.052e-01  6.052e-01 
  7.2000e-08  5.940e-01  5.940e-01  5.940e-01  5.940e-01 
  7.2500e-08  5.973e-01  5.973e-01  5.973e-01  5.973e-01 
  7.3000e-08  6.718e-01  6.718e-01  6.718e-01  6.718e-01 
  7.3500e-08  1.083e+00  1.083e+00  1.083e+00  1.083e+00 
  7.4000e-08  1.100e+00  1.100e+00  1.100e+00  1.100e+00 
  7.4500e-08  1.100e+00  1.100e+00  1.100e+00  1.100e+00 
  7.5000e-08  1.100e+00  1.100e+00  1.100e+00  1.100e+00 
y

          ***** job concluded

   *** monte carlo  index =            2 ***

x

 time         voltage    voltage    voltage    voltage   
             q0         q1         q2         q3         
  0.0000e+00  1.100e+00  1.100e+00  1.100e+00  1.100e+00 
  5.0000e-10  1.100e+00  1.100e+00  1.100e+00  1.100e+00 
  1.0000e-09  1.100e+00  1.099e+00  1.100e+00  1.101e+00 
  1.5000e-09  4.195e-01  6.310e-01  5.214e-01  6.802e-01 
  2.0000e-09  2.825e-02  1.010e+00  6.790e-02  1.085e+00 
  2.5000e-09  1.660e-03  1.099e+00  3.906e-03  1.100e+00 
  3.0000e-09  4.857e-04  1.100e+00  7.159e-04  1.100e+00 
  3.5000e-09  4.435e-04  1.100e+00  5.888e-04  1.100e+00 
  4.0000e-09  1.077e+00  1.100e+00  1.075e+00  1.100e+00 
  4.5000e-09  1.100e+00  1.100e+00  1.100e+00  1.100e+00 
  5.0000e-09  1.100e+00  1.100e+00  1.100e+00  1.100e+00 
  5.5000e-09  1.100e+00  1.100e+00  1.100e+00  1.100e+00 
  6.0000e-09  1.100e+00  1.099e+00  1.100e+00  1.100e+00 
  6.5000e-09  6.717e-01  5.857e-01  5.339e-01  7.609e-01 
  7.0000e-09  1.073e+00  2.697e-01  7.953e-02  1.095e+00 
  7.5000e-09  1.100e+00  1.694e-02  4.505e-03  1.100e+00 
  8.0000e-09  1.100e+00  1.102e-03  7.464e-04  1.100e+00 
  8.5000e-09  1.100e+00  3.989e-04  5.899e-04  1.100e+00 
  9.0000e-09  1.100e+00  1.073e+00  1.075e+00  1.100e+00 
  9.5000e-09  1.100e+00  1.100e+00  1.100e+00  1.100e+00 
  1.0000e-08  1.100e+00  1.100e+00  1.100e+00  1.100e+00 
  1.0500e-08  1.100e+00  1.100e+00  1.100e+00  1.100e+00 
  1.1000e-08  1.100e+00  1.103e+00  1.102e+00  1.103e+00 
  1.1500e-08  4.580e-01  4.717e-01  4.020e-01  5.974e-01 
  1.2000e-08  3.519e-02  4.485e-02  2.934e-02  6.418e-01 
  1.2500e-08  1.961e-03  2.609e-03  1.956e-03  1.071e+00 
  1.3000e-08  5.050e-04  4.680e-04  6.442e-04  1.100e+00 
  1.3500e-08  4.461e-04  4.090e-04  5.962e-04  1.099e+00 
  1.4000e-08  1.077e+00  1.074e+00  1.077e+00  1.100e+00 
  1.4500e-08  1.100e+00  1.100e+00  1.100e+00  1.100e+00 
  1.5000e-08  1.100e+00  1.100e+00  1.100e+00  1.100e+00 
  1.5500e-08  1.100e+00  1.100e+00  1.100e+00  1.100e+00 
  1.6000e-08  1.100e+00  1.099e+00  1.101e+00  1.103e+00 
  1.6500e-08  4.284e-01  5.762e-01  4.393e-01  5.497e-01 
  1.7000e-08  2.989e-02  1.877e-01  3.580e-02  1.111e-01 
  1.7500e-08  1.735e-03  1.101e-02  2.286e-03  6.413e-03 
  1.8000e-08  4.892e-04  8.220e-04  6.512e-04  7.835e-04 
  1.8500e-08  4.421e-04  4.059e-04  5.881e-04  6.179e-04 
  1.9000e-08  1.076e+00  1.074e+00  1.076e+00  1.079e+00 
  1.9500e-08  1.100e+00  1.100e+00  1.100e+00  1.100e+00 
  2.0000e-08  1.100e+00  1.100e+00  1.100e+00  1.100e+00 
  2.0500e-08  1.100e+00  1.100e+00  1.100e+00  1.100e+00 
  2.1000e-08  1.100e+00  1.101e+00  1.100e+00  1.100e+00 
  2.1500e-08  5.140e-01  5.289e-01  5.203e-01  7.842e-01 
  2.2000e-08  5.315e-02  7.568e-02  6.698e-02  1.096e+00 
  2.2500e-08  2.772e-03  4.242e-03  3.832e-03  1.100e+00 
  2.3000e-08  5.397e-04  5.486e-04  7.319e-04  1.100e+00 
  2.3500e-08  4.781e-04  3.852e-04  5.965e-04  1.100e+00 
  2.4000e-08  1.078e+00  1.073e+00  1.076e+00  1.100e+00 
  2.4500e-08  1.100e+00  1.100e+00  1.100e+00  1.100e+00 
  2.5000e-08  1.100e+00  1.100e+00  1.100e+00  1.100e+00 
  2.5500e-08  1.100e+00  1.100e+00  1.100e+00  1.100e+00 
  2.6000e-08  1.101e+00  1.103e+00  1.100e+00  1.102e+00 
  2.6500e-08  3.278e-01  4.486e-01  5.670e-01  5.142e-01 
  2.7000e-08  1.904e-02  3.908e-02  1.445e-01  6.762e-02 
  2.7500e-08  1.249e-03  2.323e-03  8.115e-03  3.982e-03 
  2.8000e-08  4.705e-04  4.426e-04  8.838e-04  6.746e-04 
  2.8500e-08  4.466e-04  3.968e-04  6.324e-04  5.629e-04 
  2.9000e-08  1.077e+00  1.074e+00  1.078e+00  1.079e+00 
  2.9500e-08  1.100e+00  1.100e+00  1.100e+00  1.100e+00 
  3.0000e-08  1.100e+00  1.100e+00  1.100e+00  1.100e+00 
  3.0500e-08  1.100e+00  1.100e+00  1.100e+00  1.100e+00 
  3.1000e-08  1.100e+00  1.103e+00  1.100e+00  1.100e+00 
  3.1500e-08  3.550e-01  4.322e-01  6.764e-01  7.262e-01 
  3.2000e-08  2.111e-02  3.509e-02  1.083e+00  1.093e+00 
  3.2500e-08  1.344e-03  2.122e-03  1.100e+00  1.100e+00 
  3.3000e-08  4.726e-04  4.322e-04  1.100e+00  1.100e+00 
  3.3500e-08  4.427e-04  3.733e-04  1.100e+00  1.100e+00 
  3.4000e-08  1.076e+00  1.073e+00  1.100e+00  1.100e+00 
  3.4500e-08  1.100e+00  1.100e+00  1.100e+00  1.100e+00 
  3.5000e-08  1.100e+00  1.100e+00  1.100e+00  1.100e+00 
  3.5500e-08  1.100e+00  1.100e+00  1.100e+00  1.100e+00 
  3.6000e-08  1.100e+00  1.102e+00  1.101e+00  1.102e+00 
  3.6500e-08  5.884e-01  4.785e-01  3.748e-01  5.150e-01 
  3.7000e-08  1.778e-01  4.747e-02  2.606e-02  6.798e-02 
  3.7500e-08  9.097e-03  2.765e-03  1.806e-03  4.005e-03 
  3.8000e-08  7.729e-04  4.664e-04  6.326e-04  6.832e-04 
  3.8500e-08  4.953e-04  3.702e-04  6.274e-04  5.925e-04 
  3.9000e-08  1.078e+00  1.073e+00  1.078e+00  1.079e+00 
  3.9500e-08  1.100e+00  1.100e+00  1.100e+00  1.100e+00 
  4.0000e-08  1.100e+00  1.100e+00  1.100e+00  1.100e+00 
  4.0500e-08  1.100e+00  1.100e+00  1.100e+00  1.100e+00 
  4.1000e-08  1.100e+00  1.094e+00  1.100e+00  1.100e+00 
  4.1500e-08  4.190e-01  3.652e-01  4.705e-01  5.219e-01 
  4.2000e-08  2.857e-02  2.545e-02  4.365e-02  7.383e-02 
  4.2500e-08  1.623e-03  1.574e-03  2.593e-03  4.179e-03 
  4.3000e-08  4.846e-04  4.120e-04  6.633e-04  6.861e-04 
  4.3500e-08  4.417e-04  3.791e-04  5.898e-04 -5.458e-05 
  4.4000e-08  1.076e+00  1.073e+00  1.076e+00  1.081e+00 
  4.4500e-08  1.100e+00  1.100e+00  1.100e+00  1.100e+00 
  4.5000e-08  1.100e+00  1.100e+00  1.100e+00  1.100e+00 
  4.5500e-08  1.100e+00  1.100e+00  1.100e+00  1.100e+00 
  4.6000e-08  1.100e+00  1.098e+00  1.100e+00  1.098e+00 
  4.6500e-08  3.194e-01  6.200e-01  6.025e-01  8.897e-01 
  4.7000e-08  1.816e-02  9.462e-01  6.536e-01  1.098e+00 
  4.7500e-08  1.210e-03  1.099e+00  1.078e+00  1.100e+00 
  4.8000e-08  4.737e-04  1.100e+00  1.100e+00  1.100e+00 
  4.8500e-08  4.412e-04  1.100e+00  1.100e+00  1.100e+00 
  4.9000e-08  1.075e+00  1.100e+00  1.100e+00  1.100e+00 
  4.9500e-08  1.100e+00  1.100e+00  1.100e+00  1.100e+00 
  5.0000e-08  1.100e+00  1.100e+00  1.100e+00  1.100e+00 
  5.0500e-08  1.100e+00  1.100e+00  1.100e+00  1.100e+00 
  5.1000e-08  1.100e+00  1.094e+00  1.100e+00  1.101e+00 
  5.1500e-08  3.488e-01  3.289e-01  5.585e-01  6.037e-01 
  5.2000e-08  2.078e-02  2.173e-02  1.186e-01  7.933e-01 
  5.2500e-08  1.328e-03  1.431e-03  6.612e-03  1.097e+00 
  5.3000e-08  4.762e-04  4.086e-04  8.439e-04  1.100e+00 
  5.3500e-08  4.435e-04  3.810e-04  6.146e-04  1.100e+00 
  5.4000e-08  1.077e+00  1.074e+00  1.077e+00  1.100e+00 
  5.4500e-08  1.100e+00  1.100e+00  1.100e+00  1.100e+00 
  5.5000e-08  1.100e+00  1.100e+00  1.100e+00  1.100e+00 
  5.5500e-08  1.100e+00  1.100e+00  1.100e+00  1.100e+00 
  5.6000e-08  1.100e+00  1.099e+00  1.100e+00  1.103e+00 
  5.6500e-08  5.854e-01  5.805e-01  4.776e-01  6.222e-01 
  5.7000e-08  1.622e-01  2.177e-01  4.581e-02  1.010e+00 
  5.7500e-08  8.269e-03  1.305e-02  2.796e-03  1.099e+00 
  5.8000e-08  7.394e-04  9.249e-04  6.738e-04  1.100e+00 
  5.8500e-08  4.788e-04  3.888e-04  5.863e-04  1.100e+00 
  5.9000e-08  1.078e+00  1.072e+00  1.074e+00  1.100e+00 
  5.9500e-08  1.100e+00  1.100e+00  1.100e+00  1.100e+00 
  6.0000e-08  1.100e+00  1.100e+00  1.100e+00  1.100e+00 
  6.0500e-08  1.100e+00  1.100e+00  1.100e+00  1.100e+00 
  6.1000e-08  1.100e+00  1.102e+00  1.101e+00  1.100e+00 
  6.1500e-08  5.356e-01  4.889e-01  4.985e-01  7.534e-01 
  6.2000e-08  6.690e-02  5.145e-02  5.474e-02  1.095e+00 
  6.2500e-08  3.369e-03  2.932e-03  3.187e-03  1.100e+00 
  6.3000e-08  5.282e-04  4.518e-04  6.686e-04  1.100e+00 
  6.3500e-08  5.147e-04  3.684e-04  5.740e-04  1.100e+00 
  6.4000e-08  1.079e+00  1.073e+00  1.075e+00  1.100e+00 
  6.4500e-08  1.100e+00  1.100e+00  1.100e+00  1.100e+00 
  6.5000e-08  1.100e+00  1.100e+00  1.100e+00  1.100e+00 
  6.5500e-08  1.100e+00  1.100e+00  1.100e+00  1.100e+00 
  6.6000e-08  1.100e+00  1.098e+00  1.100e+00  1.099e+00 
  6.6500e-08  5.487e-01  6.456e-01  5.667e-01  7.926e-01 
  6.7000e-08  7.761e-02  1.049e+00  1.431e-01  1.096e+00 
  6.7500e-08  3.972e-03  1.099e+00  8.103e-03  1.100e+00 
  6.8000e-08  5.687e-04  1.100e+00  8.835e-04  1.100e+00 
  6.8500e-08  4.685e-04  1.100e+00  5.950e-04  1.100e+00 
  6.9000e-08  1.078e+00  1.100e+00  1.076e+00  1.100e+00 
  6.9500e-08  1.100e+00  1.100e+00  1.100e+00  1.100e+00 
  7.0000e-08  1.100e+00  1.100e+00  1.100e+00  1.100e+00 
  7.0500e-08  1.100e+00  1.100e+00  1.100e+00  1.100e+00 
  7.1000e-08  1.100e+00  1.102e+00  1.100e+00  1.101e+00 
  7.1500e-08  3.775e-01  4.837e-01  4.629e-01  6.994e-01 
  7.2000e-08  2.361e-02  4.922e-02  4.158e-02  1.089e+00 
  7.2500e-08  1.459e-03  2.870e-03  2.582e-03  1.100e+00 
  7.3000e-08  4.781e-04  4.663e-04  6.616e-04  1.100e+00 
  7.3500e-08  4.419e-04  3.650e-04  6.170e-04  1.100e+00 
  7.4000e-08  1.076e+00  1.072e+00  1.077e+00  1.100e+00 
  7.4500e-08  1.100e+00  1.100e+00  1.100e+00  1.100e+00 
  7.5000e-08  1.100e+00  1.100e+00  1.100e+00  1.100e+00 
y
x

 time         voltage    voltage    voltage    voltage   
             q4         q5         q6         q7         
  0.0000e+00  1.100e+00  1.100e+00  1.100e+00  1.100e+00 
  5.0000e-10  1.100e+00  1.100e+00  1.100e+00  1.100e+00 
  1.0000e-09  1.100e+00  1.100e+00  1.100e+00  1.100e+00 
  1.5000e-09  7.786e-01  5.628e-01  7.371e-01  8.536e-01 
  2.0000e-09  1.094e+00  9.174e-02  1.093e+00  1.098e+00 
  2.5000e-09  1.100e+00  5.215e-03  1.100e+00  1.100e+00 
  3.0000e-09  1.100e+00  1.107e-03  1.100e+00  1.100e+00 
  3.5000e-09  1.100e+00  9.872e-04  1.100e+00  1.100e+00 
  4.0000e-09  1.100e+00  1.081e+00  1.100e+00  1.100e+00 
  4.5000e-09  1.100e+00  1.100e+00  1.100e+00  1.100e+00 
  5.0000e-09  1.100e+00  1.100e+00  1.100e+00  1.100e+00 
  5.5000e-09  1.100e+00  1.100e+00  1.100e+00  1.100e+00 
  6.0000e-09  1.102e+00  1.099e+00  1.100e+00  1.101e+00 
  6.5000e-09  5.639e-01  5.396e-01  6.877e-01  5.608e-01 
  7.0000e-09  1.311e-01  6.809e-02  1.084e+00  1.410e-01 
  7.5000e-09  8.739e-03  4.049e-03  1.100e+00  8.356e-03 
  8.0000e-09  9.847e-04  1.068e-03  1.100e+00  9.206e-04 
  8.5000e-09  5.782e-04  9.525e-04  1.100e+00  5.731e-04 
  9.0000e-09  1.083e+00  1.080e+00  1.100e+00  1.075e+00 
  9.5000e-09  1.100e+00  1.100e+00  1.100e+00  1.100e+00 
  1.0000e-08  1.100e+00  1.100e+00  1.100e+00  1.100e+00 
  1.0500e-08  1.100e+00  1.100e+00  1.100e+00  1.100e+00 
  1.1000e-08  1.100e+00  1.102e+00  1.100e+00  1.100e+00 
  1.1500e-08  8.233e-01  2.729e-01  5.717e-01  8.393e-01 
  1.2000e-08  1.096e+00  1.563e-02  1.423e-01  1.098e+00 
  1.2500e-08  1.100e+00  1.599e-03  9.018e-03  1.100e+00 
  1.3000e-08  1.100e+00  9.739e-04  1.012e-03  1.100e+00 
  1.3500e-08  1.100e+00  9.769e-04  4.177e-04  1.100e+00 
  1.4000e-08  1.100e+00  1.081e+00  1.083e+00  1.100e+00 
  1.4500e-08  1.100e+00  1.100e+00  1.100e+00  1.100e+00 
  1.5000e-08  1.100e+00  1.100e+00  1.100e+00  1.100e+00 
  1.5500e-08  1.100e+00  1.100e+00  1.100e+00  1.100e+00 
  1.6000e-08  1.100e+00  1.101e+00  1.100e+00  1.100e+00 
  1.6500e-08  7.795e-01  2.744e-01  6.958e-01  8.486e-01 
  1.7000e-08  1.094e+00  1.577e-02  1.086e+00  1.098e+00 
  1.7500e-08  1.100e+00  1.611e-03  1.100e+00  1.100e+00 
  1.8000e-08  1.100e+00  9.711e-04  1.100e+00  1.100e+00 
  1.8500e-08  1.100e+00  9.891e-04  1.099e+00  1.100e+00 
  1.9000e-08  1.100e+00  1.081e+00  1.100e+00  1.100e+00 
  1.9500e-08  1.100e+00  1.100e+00  1.100e+00  1.100e+00 
  2.0000e-08  1.100e+00  1.100e+00  1.100e+00  1.100e+00 
  2.0500e-08  1.100e+00  1.100e+00  1.100e+00  1.100e+00 
  2.1000e-08  1.100e+00  1.098e+00  1.100e+00  1.100e+00 
  2.1500e-08  6.049e-01  6.262e-01  6.480e-01  6.453e-01 
  2.2000e-08  5.325e-01  8.087e-01  1.052e+00  1.066e+00 
  2.2500e-08  9.609e-02  1.097e+00  1.100e+00  1.100e+00 
  2.3000e-08  6.304e-03  1.100e+00  1.100e+00  1.100e+00 
  2.3500e-08  8.891e-04  1.100e+00  1.100e+00  1.100e+00 
  2.4000e-08  1.082e+00  1.100e+00  1.100e+00  1.100e+00 
  2.4500e-08  1.100e+00  1.100e+00  1.100e+00  1.100e+00 
  2.5000e-08  1.100e+00  1.100e+00  1.100e+00  1.100e+00 
  2.5500e-08  1.100e+00  1.100e+00  1.100e+00  1.100e+00 
  2.6000e-08  1.100e+00  1.087e+00  1.100e+00  1.100e+00 
  2.6500e-08  7.627e-01  2.674e-01  7.989e-01  7.126e-01 
  2.7000e-08  1.093e+00  1.544e-02  1.096e+00  1.091e+00 
  2.7500e-08  1.100e+00  1.593e-03  1.100e+00  1.100e+00 
  2.8000e-08  1.100e+00  9.697e-04  1.100e+00  1.100e+00 
  2.8500e-08  1.100e+00  7.019e-04  1.100e+00  1.099e+00 
  2.9000e-08  1.100e+00  1.082e+00  1.100e+00  1.100e+00 
  2.9500e-08  1.100e+00  1.100e+00  1.100e+00  1.100e+00 
  3.0000e-08  1.100e+00  1.100e+00  1.100e+00  1.100e+00 
  3.0500e-08  1.100e+00  1.100e+00  1.100e+00  1.100e+00 
  3.1000e-08  1.100e+00  1.099e+00  1.100e+00  1.100e+00 
  3.1500e-08  5.546e-01  5.507e-01  9.215e-01  6.988e-01 
  3.2000e-08  1.110e-01  7.732e-02  1.099e+00  1.090e+00 
  3.2500e-08  7.427e-03  4.511e-03  1.100e+00  1.100e+00 
  3.3000e-08  8.930e-04  1.075e-03  1.100e+00  1.100e+00 
  3.3500e-08  5.875e-04  9.994e-04  1.100e+00  1.100e+00 
  3.4000e-08  1.084e+00  1.081e+00  1.100e+00  1.100e+00 
  3.4500e-08  1.100e+00  1.100e+00  1.100e+00  1.100e+00 
  3.5000e-08  1.100e+00  1.100e+00  1.100e+00  1.100e+00 
  3.5500e-08  1.100e+00  1.100e+00  1.100e+00  1.100e+00 
  3.6000e-08  1.100e+00  1.103e+00  1.100e+00  1.102e+00 
  3.6500e-08  7.872e-01  3.233e-01  5.448e-01  5.826e-01 
  3.7000e-08  1.094e+00  1.962e-02  9.115e-02  3.005e-01 
  3.7500e-08  1.100e+00  1.785e-03  5.830e-03  2.021e-02 
  3.8000e-08  1.100e+00  9.786e-04  8.196e-04  1.469e-03 
  3.8500e-08  1.100e+00  9.922e-04 -6.921e-05  6.120e-04 
  3.9000e-08  1.100e+00  1.081e+00  1.083e+00  1.077e+00 
  3.9500e-08  1.100e+00  1.100e+00  1.100e+00  1.100e+00 
  4.0000e-08  1.100e+00  1.100e+00  1.100e+00  1.100e+00 
  4.0500e-08  1.100e+00  1.100e+00  1.100e+00  1.100e+00 
  4.1000e-08  1.100e+00  1.101e+00  1.100e+00  1.100e+00 
  4.1500e-08  6.357e-01  3.481e-01  8.066e-01  7.171e-01 
  4.2000e-08  1.007e+00  2.158e-02  1.096e+00  1.092e+00 
  4.2500e-08  1.099e+00  1.835e-03  1.100e+00  1.100e+00 
  4.3000e-08  1.100e+00  9.795e-04  1.100e+00  1.100e+00 
  4.3500e-08  1.100e+00  9.494e-04  1.100e+00  1.100e+00 
  4.4000e-08  1.100e+00  1.079e+00  1.100e+00  1.100e+00 
  4.4500e-08  1.100e+00  1.100e+00  1.100e+00  1.100e+00 
  4.5000e-08  1.100e+00  1.100e+00  1.100e+00  1.100e+00 
  4.5500e-08  1.100e+00  1.100e+00  1.100e+00  1.100e+00 
  4.6000e-08  1.100e+00  1.101e+00  1.100e+00  1.100e+00 
  4.6500e-08  6.508e-01  3.475e-01  6.402e-01  6.695e-01 
  4.7000e-08  1.050e+00  2.144e-02  1.034e+00  1.082e+00 
  4.7500e-08  1.100e+00  1.864e-03  1.100e+00  1.100e+00 
  4.8000e-08  1.100e+00  9.854e-04  1.100e+00  1.100e+00 
  4.8500e-08  1.100e+00  9.677e-04  1.100e+00  1.100e+00 
  4.9000e-08  1.100e+00  1.080e+00  1.100e+00  1.100e+00 
  4.9500e-08  1.100e+00  1.100e+00  1.100e+00  1.100e+00 
  5.0000e-08  1.100e+00  1.100e+00  1.100e+00  1.100e+00 
  5.0500e-08  1.100e+00  1.100e+00  1.100e+00  1.100e+00 
  5.1000e-08  1.100e+00  1.103e+00  1.100e+00  1.100e+00 
  5.1500e-08  6.929e-01  3.490e-01  8.881e-01  6.831e-01 
  5.2000e-08  1.082e+00  2.175e-02  1.098e+00  1.086e+00 
  5.2500e-08  1.100e+00  1.881e-03  1.100e+00  1.100e+00 
  5.3000e-08  1.100e+00  9.836e-04  1.100e+00  1.100e+00 
  5.3500e-08  1.100e+00  9.739e-04  1.100e+00  1.100e+00 
  5.4000e-08  1.100e+00  1.081e+00  1.100e+00  1.100e+00 
  5.4500e-08  1.100e+00  1.100e+00  1.100e+00  1.100e+00 
  5.5000e-08  1.100e+00  1.100e+00  1.100e+00  1.100e+00 
  5.5500e-08  1.100e+00  1.100e+00  1.100e+00  1.100e+00 
  5.6000e-08  1.100e+00  1.101e+00  1.100e+00  1.100e+00 
  5.6500e-08  6.212e-01  4.536e-01  7.140e-01  6.763e-01 
  5.7000e-08  8.910e-01  3.509e-02  1.090e+00  1.084e+00 
  5.7500e-08  1.098e+00  2.504e-03  1.100e+00  1.100e+00 
  5.8000e-08  1.100e+00  1.007e-03  1.100e+00  1.100e+00 
  5.8500e-08  1.100e+00  9.511e-04  1.100e+00  1.100e+00 
  5.9000e-08  1.100e+00  1.079e+00  1.100e+00  1.100e+00 
  5.9500e-08  1.100e+00  1.100e+00  1.100e+00  1.100e+00 
  6.0000e-08  1.100e+00  1.100e+00  1.100e+00  1.100e+00 
  6.0500e-08  1.100e+00  1.100e+00  1.100e+00  1.100e+00 
  6.1000e-08  1.100e+00  1.099e+00  1.100e+00  1.100e+00 
  6.1500e-08  7.150e-01  4.691e-01  6.915e-01  7.153e-01 
  6.2000e-08  1.087e+00  3.860e-02  1.085e+00  1.092e+00 
  6.2500e-08  1.100e+00  2.623e-03  1.100e+00  1.100e+00 
  6.3000e-08  1.100e+00  9.974e-04  1.100e+00  1.100e+00 
  6.3500e-08  1.100e+00  1.007e-03  1.100e+00  1.100e+00 
  6.4000e-08  1.100e+00  1.081e+00  1.100e+00  1.100e+00 
  6.4500e-08  1.100e+00  1.100e+00  1.100e+00  1.100e+00 
  6.5000e-08  1.100e+00  1.100e+00  1.100e+00  1.100e+00 
  6.5500e-08  1.100e+00  1.100e+00  1.100e+00  1.100e+00 
  6.6000e-08  1.102e+00  1.098e+00  1.100e+00  1.100e+00 
  6.6500e-08  5.163e-01  6.659e-01  7.306e-01  4.410e-01 
  6.7000e-08  7.006e-02  1.071e+00  1.092e+00  3.800e-02 
  6.7500e-08  4.786e-03  1.100e+00  1.100e+00  2.524e-03 
  6.8000e-08  7.674e-04  1.100e+00  1.100e+00  6.511e-04 
  6.8500e-08  6.418e-04  1.100e+00  1.100e+00  5.143e-04 
  6.9000e-08  1.085e+00  1.100e+00  1.100e+00  1.073e+00 
  6.9500e-08  1.100e+00  1.100e+00  1.100e+00  1.100e+00 
  7.0000e-08  1.100e+00  1.100e+00  1.100e+00  1.100e+00 
  7.0500e-08  1.100e+00  1.100e+00  1.100e+00  1.100e+00 
  7.1000e-08  1.102e+00  1.099e+00  1.103e+00  1.100e+00 
  7.1500e-08  5.755e-01  3.079e-01  5.610e-01  6.912e-01 
  7.2000e-08  1.684e-01  1.834e-02  1.180e-01  1.088e+00 
  7.2500e-08  1.148e-02  1.730e-03  7.567e-03  1.100e+00 
  7.3000e-08  1.109e-03  9.750e-04  8.930e-04  1.100e+00 
  7.3500e-08  5.871e-04  9.477e-04  5.148e-04  1.100e+00 
  7.4000e-08  1.083e+00  1.078e+00  1.082e+00  1.100e+00 
  7.4500e-08  1.100e+00  1.100e+00  1.100e+00  1.100e+00 
  7.5000e-08  1.100e+00  1.100e+00  1.100e+00  1.100e+00 
y

          ***** job concluded

   *** monte carlo  index =            3 ***

x

 time         voltage    voltage    voltage    voltage   
             q0         q1         q2         q3         
  0.0000e+00  1.100e+00  1.100e+00  1.100e+00  1.100e+00 
  5.0000e-10  1.100e+00  1.100e+00  1.100e+00  1.100e+00 
  1.0000e-09  1.099e+00  1.101e+00  1.100e+00  1.069e+00 
  1.5000e-09  6.937e-01  7.549e-01  3.399e-01  4.339e-01 
  2.0000e-09  1.086e+00  1.093e+00  2.240e-02  3.695e-02 
  2.5000e-09  1.100e+00  1.100e+00  1.711e-03  2.749e-03 
  3.0000e-09  1.100e+00  1.100e+00  6.626e-04  8.980e-04 
  3.5000e-09  1.100e+00  1.100e+00  6.160e-04  8.102e-04 
  4.0000e-09  1.100e+00  1.100e+00  1.078e+00  1.085e+00 
  4.5000e-09  1.100e+00  1.100e+00  1.100e+00  1.100e+00 
  5.0000e-09  1.100e+00  1.100e+00  1.100e+00  1.100e+00 
  5.5000e-09  1.100e+00  1.100e+00  1.100e+00  1.100e+00 
  6.0000e-09  1.098e+00  1.102e+00  1.101e+00  1.088e+00 
  6.5000e-09  8.128e-01  5.857e-01  2.970e-01  6.620e-01 
  7.0000e-09  1.097e+00  2.833e-01  1.879e-02  1.068e+00 
  7.5000e-09  1.100e+00  1.964e-02  1.527e-03  1.100e+00 
  8.0000e-09  1.100e+00  1.339e-03  6.552e-04  1.100e+00 
  8.5000e-09  1.100e+00  4.209e-04  6.163e-04  1.100e+00 
  9.0000e-09  1.100e+00  1.069e+00  1.079e+00  1.100e+00 
  9.5000e-09  1.100e+00  1.100e+00  1.100e+00  1.100e+00 
  1.0000e-08  1.100e+00  1.100e+00  1.100e+00  1.100e+00 
  1.0500e-08  1.100e+00  1.100e+00  1.100e+00  1.100e+00 
  1.1000e-08  1.100e+00  1.100e+00  1.101e+00  1.092e+00 
  1.1500e-08  5.808e-01  7.979e-01  3.373e-01  6.782e-01 
  1.2000e-08  1.665e-01  1.095e+00  2.225e-02  1.079e+00 
  1.2500e-08  9.676e-03  1.100e+00  1.695e-03  1.100e+00 
  1.3000e-08  9.957e-04  1.100e+00  6.604e-04  1.100e+00 
  1.3500e-08  6.270e-04  1.100e+00  6.154e-04  1.100e+00 
  1.4000e-08  1.075e+00  1.100e+00  1.079e+00  1.100e+00 
  1.4500e-08  1.100e+00  1.100e+00  1.100e+00  1.100e+00 
  1.5000e-08  1.100e+00  1.100e+00  1.100e+00  1.100e+00 
  1.5500e-08  1.100e+00  1.100e+00  1.100e+00  1.100e+00 
  1.6000e-08  1.077e+00  1.100e+00  1.100e+00  1.090e+00 
  1.6500e-08  2.966e-01  8.225e-01  3.747e-01  6.067e-01 
  1.7000e-08  1.856e-02  1.096e+00  2.565e-02  4.899e-01 
  1.7500e-08  1.508e-03  1.100e+00  1.887e-03  5.561e-02 
  1.8000e-08  6.505e-04  1.100e+00  6.741e-04  3.642e-03 
  1.8500e-08  6.398e-04  1.100e+00  6.162e-04  9.737e-04 
  1.9000e-08  1.078e+00  1.100e+00  1.079e+00  1.088e+00 
  1.9500e-08  1.100e+00  1.100e+00  1.100e+00  1.100e+00 
  2.0000e-08  1.100e+00  1.100e+00  1.100e+00  1.100e+00 
  2.0500e-08  1.100e+00  1.100e+00  1.100e+00  1.100e+00 
  2.1000e-08  1.098e+00  1.100e+00  1.102e+00  1.099e+00 
  2.1500e-08  9.329e-01  6.231e-01  3.499e-01  7.972e-01 
  2.2000e-08  1.099e+00  9.873e-01  2.331e-02  1.096e+00 
  2.2500e-08  1.100e+00  1.099e+00  1.704e-03  1.100e+00 
  2.3000e-08  1.100e+00  1.100e+00  6.626e-04  1.100e+00 
  2.3500e-08  1.100e+00  1.100e+00  6.150e-04  1.100e+00 
  2.4000e-08  1.100e+00  1.100e+00  1.079e+00  1.100e+00 
  2.4500e-08  1.100e+00  1.100e+00  1.100e+00  1.100e+00 
  2.5000e-08  1.100e+00  1.100e+00  1.100e+00  1.100e+00 
  2.5500e-08  1.100e+00  1.100e+00  1.100e+00  1.100e+00 
  2.6000e-08  1.053e+00  1.099e+00  1.101e+00  1.074e+00 
  2.6500e-08  2.005e-01  8.328e-01  3.752e-01  3.716e-01 
  2.7000e-08  1.175e-02  1.097e+00  2.584e-02  2.754e-02 
  2.7500e-08  1.157e-03  1.100e+00  1.881e-03  2.230e-03 
  2.8000e-08  6.304e-04  1.100e+00  6.651e-04  8.678e-04 
  2.8500e-08  6.085e-04  1.100e+00  6.149e-04  8.088e-04 
  2.9000e-08  1.075e+00  1.100e+00  1.080e+00  1.087e+00 
  2.9500e-08  1.100e+00  1.100e+00  1.100e+00  1.100e+00 
  3.0000e-08  1.100e+00  1.100e+00  1.100e+00  1.100e+00 
  3.0500e-08  1.100e+00  1.100e+00  1.100e+00  1.100e+00 
  3.1000e-08  1.099e+00  1.100e+00  1.100e+00  1.089e+00 
  3.1500e-08  5.972e-01  8.459e-01  4.712e-01  5.231e-01 
  3.2000e-08  2.980e-01  1.097e+00  4.130e-02  6.881e-02 
  3.2500e-08  1.869e-02  1.100e+00  2.628e-03  4.434e-03 
  3.3000e-08  1.444e-03  1.100e+00  7.072e-04  9.848e-04 
  3.3500e-08  6.502e-04  1.100e+00  6.286e-04  8.170e-04 
  3.4000e-08  1.076e+00  1.100e+00  1.081e+00  1.087e+00 
  3.4500e-08  1.100e+00  1.100e+00  1.100e+00  1.100e+00 
  3.5000e-08  1.100e+00  1.100e+00  1.100e+00  1.100e+00 
  3.5500e-08  1.100e+00  1.100e+00  1.100e+00  1.100e+00 
  3.6000e-08  1.103e+00  1.100e+00  1.103e+00  1.092e+00 
  3.6500e-08  4.321e-01  7.085e-01  2.725e-01  5.686e-01 
  3.7000e-08  3.451e-02  1.088e+00  1.686e-02  1.268e-01 
  3.7500e-08  2.290e-03  1.100e+00  1.420e-03  7.929e-03 
  3.8000e-08  6.784e-04  1.100e+00  6.479e-04  1.127e-03 
  3.8500e-08  6.114e-04  1.100e+00  6.143e-04  8.228e-04 
  3.9000e-08  1.073e+00  1.100e+00  1.080e+00  1.085e+00 
  3.9500e-08  1.100e+00  1.100e+00  1.100e+00  1.100e+00 
  4.0000e-08  1.100e+00  1.100e+00  1.100e+00  1.100e+00 
  4.0500e-08  1.100e+00  1.100e+00  1.100e+00  1.100e+00 
  4.1000e-08  1.098e+00  1.100e+00  1.100e+00  1.101e+00 
  4.1500e-08  7.888e-01  7.661e-01  3.565e-01  8.346e-01 
  4.2000e-08  1.096e+00  1.094e+00  2.389e-02  1.097e+00 
  4.2500e-08  1.100e+00  1.100e+00  1.773e-03  1.100e+00 
  4.3000e-08  1.100e+00  1.100e+00  6.650e-04  1.100e+00 
  4.3500e-08  1.100e+00  1.100e+00  6.163e-04  1.100e+00 
  4.4000e-08  1.100e+00  1.100e+00  1.080e+00  1.100e+00 
  4.4500e-08  1.100e+00  1.100e+00  1.100e+00  1.100e+00 
  4.5000e-08  1.100e+00  1.100e+00  1.100e+00  1.100e+00 
  4.5500e-08  1.100e+00  1.100e+00  1.100e+00  1.100e+00 
  4.6000e-08  1.070e+00  1.102e+00  1.100e+00  1.069e+00 
  4.6500e-08  2.657e-01  6.538e-01  4.133e-01  3.629e-01 
  4.7000e-08  1.629e-02  1.065e+00  3.055e-02  2.661e-02 
  4.7500e-08  1.396e-03  1.100e+00  2.146e-03  2.199e-03 
  4.8000e-08  6.451e-04  1.100e+00  6.857e-04  8.756e-04 
  4.8500e-08  6.090e-04  1.100e+00  6.163e-04  8.088e-04 
  4.9000e-08  1.075e+00  1.100e+00  1.078e+00  1.085e+00 
  4.9500e-08  1.100e+00  1.100e+00  1.100e+00  1.100e+00 
  5.0000e-08  1.100e+00  1.100e+00  1.100e+00  1.100e+00 
  5.0500e-08  1.100e+00  1.100e+00  1.100e+00  1.100e+00 
  5.1000e-08  1.086e+00  1.101e+00  1.099e+00  1.074e+00 
  5.1500e-08  3.874e-01  7.408e-01  4.942e-01  3.819e-01 
  5.2000e-08  2.799e-02  1.092e+00  4.827e-02  2.915e-02 
  5.2500e-08  1.817e-03  1.100e+00  2.772e-03  2.156e-03 
  5.3000e-08  6.582e-04  1.100e+00  7.038e-04  8.665e-04 
  5.3500e-08  6.097e-04  1.100e+00  4.149e-04  8.087e-04 
  5.4000e-08  1.075e+00  1.100e+00  1.083e+00  1.085e+00 
  5.4500e-08  1.100e+00  1.100e+00  1.100e+00  1.100e+00 
  5.5000e-08  1.100e+00  1.100e+00  1.100e+00  1.100e+00 
  5.5500e-08  1.100e+00  1.100e+00  1.100e+00  1.100e+00 
  5.6000e-08  1.101e+00  1.098e+00  1.102e+00  1.101e+00 
  5.6500e-08  5.875e-01  9.103e-01  2.918e-01  7.391e-01 
  5.7000e-08  2.034e-01  1.098e+00  1.845e-02  1.093e+00 
  5.7500e-08  1.189e-02  1.100e+00  1.491e-03  1.100e+00 
  5.8000e-08  1.105e-03  1.100e+00  6.530e-04  1.100e+00 
  5.8500e-08  6.321e-04  1.100e+00  6.157e-04  1.100e+00 
  5.9000e-08  1.074e+00  1.100e+00  1.080e+00  1.100e+00 
  5.9500e-08  1.100e+00  1.100e+00  1.100e+00  1.100e+00 
  6.0000e-08  1.100e+00  1.100e+00  1.100e+00  1.100e+00 
  6.0500e-08  1.100e+00  1.100e+00  1.100e+00  1.100e+00 
  6.1000e-08  1.099e+00  1.102e+00  1.101e+00  1.090e+00 
  6.1500e-08  6.036e-01  7.382e-01  2.389e-01  6.036e-01 
  6.2000e-08  4.239e-01  1.092e+00  1.439e-02  4.135e-01 
  6.2500e-08  3.449e-02  1.100e+00  1.310e-03  3.463e-02 
  6.3000e-08  2.185e-03  1.100e+00  6.461e-04  2.496e-03 
  6.3500e-08  6.856e-04  1.100e+00  5.860e-04  8.956e-04 
  6.4000e-08  1.074e+00  1.100e+00  1.078e+00  1.084e+00 
  6.4500e-08  1.100e+00  1.100e+00  1.100e+00  1.100e+00 
  6.5000e-08  1.100e+00  1.100e+00  1.100e+00  1.100e+00 
  6.5500e-08  1.100e+00  1.100e+00  1.100e+00  1.100e+00 
  6.6000e-08  1.098e+00  1.101e+00  1.100e+00  1.082e+00 
  6.6500e-08  7.703e-01  7.462e-01  3.195e-01  4.474e-01 
  6.7000e-08  1.095e+00  1.092e+00  2.071e-02  4.017e-02 
  6.7500e-08  1.100e+00  1.100e+00  1.484e-03  2.648e-03 
  6.8000e-08  1.100e+00  1.100e+00  6.503e-04  8.885e-04 
  6.8500e-08  1.100e+00  1.100e+00  6.346e-04  8.098e-04 
  6.9000e-08  1.100e+00  1.100e+00  1.081e+00  1.085e+00 
  6.9500e-08  1.100e+00  1.100e+00  1.100e+00  1.100e+00 
  7.0000e-08  1.100e+00  1.100e+00  1.100e+00  1.100e+00 
  7.0500e-08  1.100e+00  1.100e+00  1.100e+00  1.100e+00 
  7.1000e-08  1.079e+00  1.099e+00  1.099e+00  1.073e+00 
  7.1500e-08  3.767e-01  8.081e-01  4.941e-01  4.615e-01 
  7.2000e-08  2.660e-02  1.096e+00  4.782e-02  4.337e-02 
  7.2500e-08  1.874e-03  1.100e+00  2.967e-03  3.049e-03 
  7.3000e-08  6.602e-04  1.100e+00  7.115e-04  9.057e-04 
  7.3500e-08  6.110e-04  1.100e+00  6.173e-04  8.120e-04 
  7.4000e-08  1.072e+00  1.100e+00  1.079e+00  1.084e+00 
  7.4500e-08  1.100e+00  1.100e+00  1.100e+00  1.100e+00 
  7.5000e-08  1.100e+00  1.100e+00  1.100e+00  1.100e+00 
y
x

 time         voltage    voltage    voltage    voltage   
             q4         q5         q6         q7         
  0.0000e+00  1.100e+00  1.100e+00  1.100e+00  1.100e+00 
  5.0000e-10  1.100e+00  1.100e+00  1.100e+00  1.100e+00 
  1.0000e-09  1.102e+00  1.100e+00  1.092e+00  1.103e+00 
  1.5000e-09  6.131e-01  8.738e-01  3.214e-01  8.240e-01 
  2.0000e-09  9.088e-01  1.098e+00  1.942e-02  1.098e+00 
  2.5000e-09  1.099e+00  1.100e+00  1.623e-03  1.100e+00 
  3.0000e-09  1.100e+00  1.100e+00  8.191e-04  1.100e+00 
  3.5000e-09  1.100e+00  1.100e+00  7.872e-04  1.100e+00 
  4.0000e-09  1.100e+00  1.100e+00  1.084e+00  1.100e+00 
  4.5000e-09  1.100e+00  1.100e+00  1.100e+00  1.100e+00 
  5.0000e-09  1.100e+00  1.100e+00  1.100e+00  1.100e+00 
  5.5000e-09  1.100e+00  1.100e+00  1.100e+00  1.100e+00 
  6.0000e-09  1.102e+00  1.100e+00  1.100e+00  1.098e+00 
  6.5000e-09  6.105e-01  8.084e-01  4.852e-01  9.774e-01 
  7.0000e-09  8.724e-01  1.096e+00  4.788e-02  1.099e+00 
  7.5000e-09  1.098e+00  1.100e+00  2.940e-03  1.100e+00 
  8.0000e-09  1.100e+00  1.100e+00  8.723e-04  1.100e+00 
  8.5000e-09  1.100e+00  1.100e+00  7.897e-04  1.100e+00 
  9.0000e-09  1.100e+00  1.100e+00  1.084e+00  1.100e+00 
  9.5000e-09  1.100e+00  1.100e+00  1.100e+00  1.100e+00 
  1.0000e-08  1.100e+00  1.100e+00  1.100e+00  1.100e+00 
  1.0500e-08  1.100e+00  1.100e+00  1.100e+00  1.100e+00 
  1.1000e-08  1.100e+00  1.101e+00  1.098e+00  1.100e+00 
  1.1500e-08  6.420e-01  6.847e-01  2.815e-01  7.839e-01 
  1.2000e-08  1.053e+00  1.084e+00  1.633e-02  1.097e+00 
  1.2500e-08  1.100e+00  1.100e+00  1.476e-03  1.100e+00 
  1.3000e-08  1.100e+00  1.100e+00  8.124e-04  1.100e+00 
  1.3500e-08  1.100e+00  1.100e+00  7.867e-04  1.100e+00 
  1.4000e-08  1.100e+00  1.100e+00  1.086e+00  1.100e+00 
  1.4500e-08  1.100e+00  1.100e+00  1.100e+00  1.100e+00 
  1.5000e-08  1.100e+00  1.100e+00  1.100e+00  1.100e+00 
  1.5500e-08  1.100e+00  1.100e+00  1.100e+00  1.100e+00 
  1.6000e-08  1.099e+00  1.103e+00  1.080e+00  1.103e+00 
  1.6500e-08  7.105e-01  5.038e-01  2.237e-01  7.710e-01 
  1.7000e-08  1.090e+00  6.260e-02  1.224e-02  1.097e+00 
  1.7500e-08  1.100e+00  4.496e-03  1.303e-03  1.100e+00 
  1.8000e-08  1.100e+00  1.158e-03  8.081e-04  1.100e+00 
  1.8500e-08  1.100e+00  1.024e-03  7.870e-04  1.100e+00 
  1.9000e-08  1.100e+00  1.090e+00  1.084e+00  1.100e+00 
  1.9500e-08  1.100e+00  1.100e+00  1.100e+00  1.100e+00 
  2.0000e-08  1.100e+00  1.100e+00  1.100e+00  1.100e+00 
  2.0500e-08  1.100e+00  1.100e+00  1.100e+00  1.100e+00 
  2.1000e-08  1.097e+00  1.099e+00  1.092e+00  1.100e+00 
  2.1500e-08  4.564e-01  7.594e-01  3.368e-01  9.338e-01 
  2.2000e-08  4.436e-02  1.095e+00  2.075e-02  1.099e+00 
  2.2500e-08  2.932e-03  1.100e+00  1.638e-03  1.100e+00 
  2.3000e-08  7.205e-04  1.100e+00  8.198e-04  1.100e+00 
  2.3500e-08  6.117e-04  1.100e+00  7.869e-04  1.100e+00 
  2.4000e-08  1.080e+00  1.100e+00  1.085e+00  1.100e+00 
  2.4500e-08  1.100e+00  1.100e+00  1.100e+00  1.100e+00 
  2.5000e-08  1.100e+00  1.100e+00  1.100e+00  1.100e+00 
  2.5500e-08  1.100e+00  1.100e+00  1.100e+00  1.100e+00 
  2.6000e-08  1.099e+00  1.103e+00  1.097e+00  1.095e+00 
  2.6500e-08  7.474e-01  5.473e-01  3.496e-01  7.878e-01 
  2.7000e-08  1.094e+00  1.034e-01  2.190e-02  1.097e+00 
  2.7500e-08  1.100e+00  6.951e-03  1.729e-03  1.100e+00 
  2.8000e-08  1.100e+00  1.245e-03  8.195e-04  1.100e+00 
  2.8500e-08  1.100e+00  9.886e-04  7.870e-04  1.100e+00 
  2.9000e-08  1.100e+00  1.089e+00  1.085e+00  1.100e+00 
  2.9500e-08  1.100e+00  1.100e+00  1.100e+00  1.100e+00 
  3.0000e-08  1.100e+00  1.100e+00  1.100e+00  1.100e+00 
  3.0500e-08  1.100e+00  1.100e+00  1.100e+00  1.100e+00 
  3.1000e-08  1.100e+00  1.100e+00  1.100e+00  1.100e+00 
  3.1500e-08  4.905e-01  6.685e-01  3.642e-01  9.001e-01 
  3.2000e-08  5.673e-02  1.077e+00  2.360e-02  1.099e+00 
  3.2500e-08  3.668e-03  1.100e+00  1.783e-03  1.100e+00 
  3.3000e-08  7.616e-04  1.100e+00  8.272e-04  1.100e+00 
  3.3500e-08  6.137e-04  1.100e+00  7.873e-04  1.100e+00 
  3.4000e-08  1.081e+00  1.100e+00  1.084e+00  1.100e+00 
  3.4500e-08  1.100e+00  1.100e+00  1.100e+00  1.100e+00 
  3.5000e-08  1.100e+00  1.100e+00  1.100e+00  1.100e+00 
  3.5500e-08  1.100e+00  1.100e+00  1.100e+00  1.100e+00 
  3.6000e-08  1.097e+00  1.100e+00  1.088e+00  1.088e+00 
  3.6500e-08  4.803e-01  6.659e-01  2.635e-01  7.822e-01 
  3.7000e-08  5.238e-02  1.076e+00  1.500e-02  1.097e+00 
  3.7500e-08  3.471e-03  1.100e+00  1.414e-03  1.100e+00 
  3.8000e-08  7.394e-04  1.100e+00  8.096e-04  1.100e+00 
  3.8500e-08  6.150e-04  1.100e+00  7.861e-04  1.100e+00 
  3.9000e-08  1.082e+00  1.100e+00  1.085e+00  1.100e+00 
  3.9500e-08  1.100e+00  1.100e+00  1.100e+00  1.100e+00 
  4.0000e-08  1.100e+00  1.100e+00  1.100e+00  1.100e+00 
  4.0500e-08  1.100e+00  1.100e+00  1.100e+00  1.100e+00 
  4.1000e-08  1.101e+00  1.100e+00  1.099e+00  1.102e+00 
  4.1500e-08  6.242e-01  6.964e-01  4.387e-01  8.750e-01 
  4.2000e-08  1.001e+00  1.088e+00  3.429e-02  1.099e+00 
  4.2500e-08  1.099e+00  1.100e+00  2.285e-03  1.100e+00 
  4.3000e-08  1.100e+00  1.100e+00  8.443e-04  1.100e+00 
  4.3500e-08  1.100e+00  1.100e+00  7.883e-04  1.100e+00 
  4.4000e-08  1.100e+00  1.100e+00  1.084e+00  1.100e+00 
  4.4500e-08  1.100e+00  1.100e+00  1.100e+00  1.100e+00 
  4.5000e-08  1.100e+00  1.100e+00  1.100e+00  1.100e+00 
  4.5500e-08  1.100e+00  1.100e+00  1.100e+00  1.100e+00 
  4.6000e-08  1.102e+00  1.100e+00  1.102e+00  1.102e+00 
  4.6500e-08  5.603e-01  6.049e-01  2.930e-01  8.704e-01 
  4.7000e-08  1.352e-01  6.802e-01  1.709e-02  1.099e+00 
  4.7500e-08  8.627e-03  1.085e+00  1.527e-03  1.100e+00 
  4.8000e-08  1.018e-03  1.100e+00  8.172e-04  1.100e+00 
  4.8500e-08  6.290e-04  1.100e+00  7.879e-04  1.100e+00 
  4.9000e-08  1.078e+00  1.100e+00  1.082e+00  1.100e+00 
  4.9500e-08  1.100e+00  1.100e+00  1.100e+00  1.100e+00 
  5.0000e-08  1.100e+00  1.100e+00  1.100e+00  1.100e+00 
  5.0500e-08  1.100e+00  1.100e+00  1.100e+00  1.100e+00 
  5.1000e-08  1.098e+00  1.098e+00  1.100e+00  1.093e+00 
  5.1500e-08  4.200e-01  8.105e-01  4.050e-01  8.483e-01 
  5.2000e-08  3.636e-02  1.097e+00  2.884e-02  1.098e+00 
  5.2500e-08  2.373e-03  1.100e+00  1.891e-03  1.100e+00 
  5.3000e-08  6.877e-04  1.100e+00  8.265e-04  1.100e+00 
  5.3500e-08  6.109e-04  1.100e+00  7.883e-04  1.100e+00 
  5.4000e-08  1.079e+00  1.100e+00  1.084e+00  1.100e+00 
  5.4500e-08  1.100e+00  1.100e+00  1.100e+00  1.100e+00 
  5.5000e-08  1.100e+00  1.100e+00  1.100e+00  1.100e+00 
  5.5500e-08  1.100e+00  1.100e+00  1.100e+00  1.100e+00 
  5.6000e-08  1.100e+00  1.103e+00  1.091e+00  1.095e+00 
  5.6500e-08  6.605e-01  4.914e-01  2.472e-01  8.570e-01 
  5.7000e-08  1.073e+00  5.680e-02  1.398e-02  1.098e+00 
  5.7500e-08  1.100e+00  4.074e-03  1.362e-03  1.100e+00 
  5.8000e-08  1.100e+00  1.127e-03  8.090e-04  1.100e+00 
  5.8500e-08  1.100e+00  5.217e-04  8.097e-04  1.100e+00 
  5.9000e-08  1.100e+00  1.091e+00  1.087e+00  1.100e+00 
  5.9500e-08  1.100e+00  1.100e+00  1.100e+00  1.100e+00 
  6.0000e-08  1.100e+00  1.100e+00  1.100e+00  1.100e+00 
  6.0500e-08  1.100e+00  1.100e+00  1.100e+00  1.100e+00 
  6.1000e-08  1.092e+00  1.100e+00  1.085e+00  1.101e+00 
  6.1500e-08  4.442e-01  6.798e-01  2.481e-01  9.166e-01 
  6.2000e-08  4.116e-02  1.083e+00  1.392e-02  1.099e+00 
  6.2500e-08  2.870e-03  1.100e+00  1.379e-03  1.100e+00 
  6.3000e-08  7.207e-04  1.100e+00  8.106e-04  1.100e+00 
  6.3500e-08  6.203e-04  1.100e+00  7.914e-04  1.100e+00 
  6.4000e-08  1.082e+00  1.100e+00  1.086e+00  1.100e+00 
  6.4500e-08  1.100e+00  1.100e+00  1.100e+00  1.100e+00 
  6.5000e-08  1.100e+00  1.100e+00  1.100e+00  1.100e+00 
  6.5500e-08  1.100e+00  1.100e+00  1.100e+00  1.100e+00 
  6.6000e-08  1.089e+00  1.100e+00  1.100e+00  1.100e+00 
  6.6500e-08  4.115e-01  8.053e-01  3.953e-01  8.740e-01 
  6.7000e-08  3.485e-02  1.096e+00  2.744e-02  1.099e+00 
  6.7500e-08  2.256e-03  1.100e+00  1.804e-03  1.100e+00 
  6.8000e-08  6.825e-04  1.100e+00  8.234e-04  1.100e+00 
  6.8500e-08  6.094e-04  1.100e+00  7.870e-04  1.100e+00 
  6.9000e-08  1.081e+00  1.100e+00  1.085e+00  1.100e+00 
  6.9500e-08  1.100e+00  1.100e+00  1.100e+00  1.100e+00 
  7.0000e-08  1.100e+00  1.100e+00  1.100e+00  1.100e+00 
  7.0500e-08  1.100e+00  1.100e+00  1.100e+00  1.100e+00 
  7.1000e-08  1.100e+00  1.101e+00  1.099e+00  1.099e+00 
  7.1500e-08  6.625e-01  6.803e-01  5.542e-01  9.083e-01 
  7.2000e-08  1.074e+00  1.083e+00  1.141e-01  1.099e+00 
  7.2500e-08  1.100e+00  1.100e+00  6.080e-03  1.100e+00 
  7.3000e-08  1.100e+00  1.100e+00  9.781e-04  1.100e+00 
  7.3500e-08  1.100e+00  1.100e+00  7.942e-04  1.100e+00 
  7.4000e-08  1.100e+00  1.100e+00  1.084e+00  1.100e+00 
  7.4500e-08  1.100e+00  1.100e+00  1.100e+00  1.100e+00 
  7.5000e-08  1.100e+00  1.100e+00  1.100e+00  1.100e+00 
y

          ***** job concluded

   *** monte carlo  index =            4 ***

x

 time         voltage    voltage    voltage    voltage   
             q0         q1         q2         q3         
  0.0000e+00  1.100e+00  1.100e+00  1.100e+00  1.100e+00 
  5.0000e-10  1.100e+00  1.100e+00  1.100e+00  1.100e+00 
  1.0000e-09  1.046e+00  1.022e+00  1.035e+00  1.034e+00 
  1.5000e-09  7.336e-01  5.159e-01  6.630e-01  3.663e-01 
  2.0000e-09  1.093e+00  8.147e-02  1.078e+00  2.527e-02 
  2.5000e-09  1.100e+00  4.783e-03  1.100e+00  1.632e-03 
  3.0000e-09  1.100e+00  6.905e-04  1.100e+00  5.486e-04 
  3.5000e-09  1.099e+00 -4.524e-04  1.100e+00  3.503e-04 
  4.0000e-09  1.100e+00  1.077e+00  1.100e+00  1.082e+00 
  4.5000e-09  1.100e+00  1.100e+00  1.100e+00  1.100e+00 
  5.0000e-09  1.100e+00  1.100e+00  1.100e+00  1.100e+00 
  5.5000e-09  1.100e+00  1.100e+00  1.100e+00  1.100e+00 
  6.0000e-09  1.030e+00  1.034e+00  1.022e+00  1.056e+00 
  6.5000e-09  5.633e-01  5.902e-01  4.895e-01  6.621e-01 
  7.0000e-09  2.755e-01  7.334e-01  5.757e-02  1.061e+00 
  7.5000e-09  1.820e-02  1.094e+00  3.420e-03  1.100e+00 
  8.0000e-09  1.281e-03  1.100e+00  5.551e-04  1.100e+00 
  8.5000e-09  4.985e-04  1.099e+00  4.163e-04  1.100e+00 
  9.0000e-09  1.071e+00  1.100e+00  1.072e+00  1.100e+00 
  9.5000e-09  1.100e+00  1.100e+00  1.100e+00  1.100e+00 
  1.0000e-08  1.100e+00  1.100e+00  1.100e+00  1.100e+00 
  1.0500e-08  1.100e+00  1.100e+00  1.100e+00  1.100e+00 
  1.1000e-08  1.050e+00  1.034e+00  1.050e+00  1.052e+00 
  1.1500e-08  6.926e-01  6.496e-01  8.087e-01  4.839e-01 
  1.2000e-08  1.089e+00  1.076e+00  1.096e+00  4.635e-02 
  1.2500e-08  1.100e+00  1.100e+00  1.100e+00  2.767e-03 
  1.3000e-08  1.100e+00  1.100e+00  1.100e+00  5.938e-04 
  1.3500e-08  1.100e+00  1.100e+00  1.100e+00  6.697e-03 
  1.4000e-08  1.100e+00  1.100e+00  1.100e+00  1.082e+00 
  1.4500e-08  1.100e+00  1.100e+00  1.100e+00  1.100e+00 
  1.5000e-08  1.100e+00  1.100e+00  1.100e+00  1.100e+00 
  1.5500e-08  1.100e+00  1.100e+00  1.100e+00  1.100e+00 
  1.6000e-08  1.061e+00  1.037e+00  1.058e+00  1.025e+00 
  1.6500e-08  8.222e-01  7.102e-01  8.870e-01  2.694e-01 
  1.7000e-08  1.097e+00  1.092e+00  1.098e+00  1.641e-02 
  1.7500e-08  1.100e+00  1.100e+00  1.100e+00  1.292e-03 
  1.8000e-08  1.100e+00  1.100e+00  1.100e+00  5.365e-04 
  1.8500e-08  1.100e+00  1.100e+00  1.100e+00  2.237e-02 
  1.9000e-08  1.100e+00  1.100e+00  1.100e+00  1.084e+00 
  1.9500e-08  1.100e+00  1.100e+00  1.100e+00  1.100e+00 
  2.0000e-08  1.100e+00  1.100e+00  1.100e+00  1.100e+00 
  2.0500e-08  1.100e+00  1.100e+00  1.100e+00  1.100e+00 
  2.1000e-08  1.042e+00  1.030e+00  1.040e+00  1.072e+00 
  2.1500e-08  7.696e-01  6.001e-01  7.163e-01  8.088e-01 
  2.2000e-08  1.095e+00  9.248e-01  1.091e+00  1.096e+00 
  2.2500e-08  1.100e+00  1.099e+00  1.100e+00  1.100e+00 
  2.3000e-08  1.100e+00  1.100e+00  1.100e+00  1.100e+00 
  2.3500e-08  1.100e+00  1.100e+00  1.100e+00  1.100e+00 
  2.4000e-08  1.100e+00  1.100e+00  1.100e+00  1.100e+00 
  2.4500e-08  1.100e+00  1.100e+00  1.100e+00  1.100e+00 
  2.5000e-08  1.100e+00  1.100e+00  1.100e+00  1.100e+00 
  2.5500e-08  1.100e+00  1.100e+00  1.100e+00  1.100e+00 
  2.6000e-08  1.042e+00  1.061e+00  1.041e+00  1.016e+00 
  2.6500e-08  7.657e-01  9.474e-01  7.390e-01  2.419e-01 
  2.7000e-08  1.095e+00  1.099e+00  1.093e+00  1.444e-02 
  2.7500e-08  1.100e+00  1.100e+00  1.100e+00  1.172e-03 
  2.8000e-08  1.100e+00  1.100e+00  1.100e+00  5.293e-04 
  2.8500e-08  1.100e+00  1.099e+00  1.100e+00  1.401e-02 
  2.9000e-08  1.100e+00  1.100e+00  1.100e+00  1.083e+00 
  2.9500e-08  1.100e+00  1.100e+00  1.100e+00  1.100e+00 
  3.0000e-08  1.100e+00  1.100e+00  1.100e+00  1.100e+00 
  3.0500e-08  1.100e+00  1.100e+00  1.100e+00  1.100e+00 
  3.1000e-08  1.062e+00  1.041e+00  1.042e+00  1.033e+00 
  3.1500e-08  8.138e-01  8.310e-01  7.411e-01  3.261e-01 
  3.2000e-08  1.097e+00  1.097e+00  1.093e+00  2.106e-02 
  3.2500e-08  1.100e+00  1.100e+00  1.100e+00  1.495e-03 
  3.3000e-08  1.100e+00  1.100e+00  1.100e+00  5.459e-04 
  3.3500e-08  1.100e+00  1.100e+00  1.100e+00  5.364e-04 
  3.4000e-08  1.100e+00  1.100e+00  1.100e+00  1.079e+00 
  3.4500e-08  1.100e+00  1.100e+00  1.100e+00  1.100e+00 
  3.5000e-08  1.100e+00  1.100e+00  1.100e+00  1.100e+00 
  3.5500e-08  1.100e+00  1.100e+00  1.100e+00  1.100e+00 
  3.6000e-08  1.047e+00  1.042e+00  1.054e+00  1.047e+00 
  3.6500e-08  6.895e-01  8.457e-01  8.815e-01  4.570e-01 
  3.7000e-08  1.088e+00  1.098e+00  1.098e+00  3.928e-02 
  3.7500e-08  1.100e+00  1.100e+00  1.100e+00  2.442e-03 
  3.8000e-08  1.100e+00  1.100e+00  1.100e+00  5.813e-04 
  3.8500e-08  1.100e+00  1.099e+00  1.100e+00  5.473e-04 
  3.9000e-08  1.100e+00  1.100e+00  1.100e+00  1.079e+00 
  3.9500e-08  1.100e+00  1.100e+00  1.100e+00  1.100e+00 
  4.0000e-08  1.100e+00  1.100e+00  1.100e+00  1.100e+00 
  4.0500e-08  1.100e+00  1.100e+00  1.100e+00  1.100e+00 
  4.1000e-08  1.045e+00  1.059e+00  1.052e+00  1.061e+00 
  4.1500e-08  6.348e-01  7.851e-01  8.540e-01  5.593e-01 
  4.2000e-08  1.067e+00  1.096e+00  1.097e+00  9.699e-02 
  4.2500e-08  1.100e+00  1.100e+00  1.100e+00  5.532e-03 
  4.3000e-08  1.100e+00  1.100e+00  1.100e+00  7.182e-04 
  4.3500e-08  1.100e+00  1.098e+00  1.100e+00  5.606e-04 
  4.4000e-08  1.100e+00  1.100e+00  1.100e+00  1.080e+00 
  4.4500e-08  1.100e+00  1.100e+00  1.100e+00  1.100e+00 
  4.5000e-08  1.100e+00  1.100e+00  1.100e+00  1.100e+00 
  4.5500e-08  1.100e+00  1.100e+00  1.100e+00  1.100e+00 
  4.6000e-08  1.063e+00  1.063e+00  1.036e+00  1.058e+00 
  4.6500e-08  8.647e-01  8.504e-01  6.373e-01  5.659e-01 
  4.7000e-08  1.098e+00  1.098e+00  1.060e+00  1.074e-01 
  4.7500e-08  1.100e+00  1.100e+00  1.100e+00  6.160e-03 
  4.8000e-08  1.100e+00  1.100e+00  1.100e+00  7.383e-04 
  4.8500e-08  1.100e+00  1.098e+00  1.100e+00  3.998e-04 
  4.9000e-08  1.100e+00  1.100e+00  1.100e+00  1.081e+00 
  4.9500e-08  1.100e+00  1.100e+00  1.100e+00  1.100e+00 
  5.0000e-08  1.100e+00  1.100e+00  1.100e+00  1.100e+00 
  5.0500e-08  1.100e+00  1.100e+00  1.100e+00  1.100e+00 
  5.1000e-08  1.057e+00  1.067e+00  1.054e+00  1.040e+00 
  5.1500e-08  8.402e-01  9.494e-01  8.697e-01  4.153e-01 
  5.2000e-08  1.097e+00  1.099e+00  1.098e+00  3.143e-02 
  5.2500e-08  1.100e+00  1.100e+00  1.100e+00  2.015e-03 
  5.3000e-08  1.100e+00  1.100e+00  1.100e+00  5.578e-04 
  5.3500e-08  1.100e+00  1.099e+00  1.100e+00 -5.207e-05 
  5.4000e-08  1.100e+00  1.100e+00  1.100e+00  1.082e+00 
  5.4500e-08  1.100e+00  1.100e+00  1.100e+00  1.100e+00 
  5.5000e-08  1.100e+00  1.100e+00  1.100e+00  1.100e+00 
  5.5500e-08  1.100e+00  1.100e+00  1.100e+00  1.100e+00 
  5.6000e-08  1.046e+00  1.038e+00  1.047e+00  1.026e+00 
  5.6500e-08  6.548e-01  6.539e-01  8.119e-01  2.825e-01 
  5.7000e-08  1.079e+00  1.078e+00  1.096e+00  1.744e-02 
  5.7500e-08  1.100e+00  1.100e+00  1.100e+00  1.346e-03 
  5.8000e-08  1.100e+00  1.100e+00  1.100e+00  5.366e-04 
  5.8500e-08  1.100e+00  1.100e+00  1.100e+00  8.767e-04 
  5.9000e-08  1.100e+00  1.100e+00  1.100e+00  1.083e+00 
  5.9500e-08  1.100e+00  1.100e+00  1.100e+00  1.100e+00 
  6.0000e-08  1.100e+00  1.100e+00  1.100e+00  1.100e+00 
  6.0500e-08  1.100e+00  1.100e+00  1.100e+00  1.100e+00 
  6.1000e-08  1.038e+00  1.037e+00  1.039e+00  1.032e+00 
  6.1500e-08  7.215e-01  7.276e-01  7.277e-01  3.840e-01 
  6.2000e-08  1.092e+00  1.093e+00  1.092e+00  2.727e-02 
  6.2500e-08  1.100e+00  1.100e+00  1.100e+00  1.732e-03 
  6.3000e-08  1.100e+00  1.100e+00  1.100e+00  5.525e-04 
  6.3500e-08  1.100e+00  1.100e+00  1.100e+00  2.055e-04 
  6.4000e-08  1.100e+00  1.100e+00  1.100e+00  1.082e+00 
  6.4500e-08  1.100e+00  1.100e+00  1.100e+00  1.100e+00 
  6.5000e-08  1.100e+00  1.100e+00  1.100e+00  1.100e+00 
  6.5500e-08  1.100e+00  1.100e+00  1.100e+00  1.100e+00 
  6.6000e-08  1.039e+00  1.041e+00  1.033e+00  1.046e+00 
  6.6500e-08  7.022e-01  7.661e-01  6.778e-01  5.336e-01 
  6.7000e-08  1.090e+00  1.095e+00  1.084e+00  7.065e-02 
  6.7500e-08  1.100e+00  1.100e+00  1.100e+00  4.122e-03 
  6.8000e-08  1.100e+00  1.100e+00  1.100e+00  6.623e-04 
  6.8500e-08  1.100e+00  1.100e+00  1.100e+00 -1.486e-04 
  6.9000e-08  1.100e+00  1.100e+00  1.100e+00  1.081e+00 
  6.9500e-08  1.100e+00  1.100e+00  1.100e+00  1.100e+00 
  7.0000e-08  1.100e+00  1.100e+00  1.100e+00  1.100e+00 
  7.0500e-08  1.100e+00  1.100e+00  1.100e+00  1.100e+00 
  7.1000e-08  1.042e+00  1.064e+00  1.029e+00  1.045e+00 
  7.1500e-08  7.319e-01  9.425e-01  5.600e-01  5.129e-01 
  7.2000e-08  1.093e+00  1.099e+00  1.693e-01  5.788e-02 
  7.2500e-08  1.100e+00  1.100e+00  1.022e-02  3.443e-03 
  7.3000e-08  1.100e+00  1.100e+00  8.596e-04  6.292e-04 
  7.3500e-08  1.100e+00  1.100e+00  4.327e-04  5.469e-04 
  7.4000e-08  1.100e+00  1.100e+00  1.072e+00  1.079e+00 
  7.4500e-08  1.100e+00  1.100e+00  1.100e+00  1.100e+00 
  7.5000e-08  1.100e+00  1.100e+00  1.100e+00  1.100e+00 
y
x

 time         voltage    voltage    voltage    voltage   
             q4         q5         q6         q7         
  0.0000e+00  1.100e+00  1.100e+00  1.100e+00  1.100e+00 
  5.0000e-10  1.100e+00  1.100e+00  1.100e+00  1.100e+00 
  1.0000e-09  1.035e+00  1.022e+00  1.015e+00  1.052e+00 
  1.5000e-09  4.768e-01  7.944e-01  6.584e-01  7.222e-01 
  2.0000e-09  4.838e-02  1.096e+00  1.078e+00  1.092e+00 
  2.5000e-09  2.826e-03  1.100e+00  1.100e+00  1.100e+00 
  3.0000e-09  7.865e-04  1.100e+00  1.100e+00  1.100e+00 
  3.5000e-09  7.571e-04  1.100e+00  1.100e+00  1.100e+00 
  4.0000e-09  1.087e+00  1.100e+00  1.100e+00  1.100e+00 
  4.5000e-09  1.100e+00  1.100e+00  1.100e+00  1.100e+00 
  5.0000e-09  1.100e+00  1.100e+00  1.100e+00  1.100e+00 
  5.5000e-09  1.100e+00  1.100e+00  1.100e+00  1.100e+00 
  6.0000e-09  1.033e+00  1.038e+00  1.039e+00  1.041e+00 
  6.5000e-09  4.279e-01  9.143e-01  9.329e-01  5.442e-01 
  7.0000e-09  3.449e-02  1.098e+00  1.099e+00  7.963e-02 
  7.5000e-09  2.317e-03  1.100e+00  1.100e+00  4.328e-03 
  8.0000e-09  7.725e-04  1.100e+00  1.100e+00  8.244e-04 
  8.5000e-09  7.125e-04  1.100e+00  1.100e+00  6.973e-04 
  9.0000e-09  1.087e+00  1.100e+00  1.100e+00  1.082e+00 
  9.5000e-09  1.100e+00  1.100e+00  1.100e+00  1.100e+00 
  1.0000e-08  1.100e+00  1.100e+00  1.100e+00  1.100e+00 
  1.0500e-08  1.100e+00  1.100e+00  1.100e+00  1.100e+00 
  1.1000e-08  1.013e+00  1.019e+00  1.031e+00  1.051e+00 
  1.1500e-08  2.855e-01  6.483e-01  7.216e-01  7.160e-01 
  1.2000e-08  1.749e-02  1.066e+00  1.093e+00  1.091e+00 
  1.2500e-08  1.484e-03  1.100e+00  1.100e+00  1.100e+00 
  1.3000e-08  7.313e-04  1.100e+00  1.100e+00  1.100e+00 
  1.3500e-08  3.092e-03  1.100e+00  1.100e+00  1.100e+00 
  1.4000e-08  1.089e+00  1.100e+00  1.100e+00  1.100e+00 
  1.4500e-08  1.100e+00  1.100e+00  1.100e+00  1.100e+00 
  1.5000e-08  1.100e+00  1.100e+00  1.100e+00  1.100e+00 
  1.5500e-08  1.100e+00  1.100e+00  1.100e+00  1.100e+00 
  1.6000e-08  1.036e+00  1.019e+00  1.019e+00  1.054e+00 
  1.6500e-08  5.170e-01  6.547e-01  6.015e-01  6.918e-01 
  1.7000e-08  7.054e-02  1.072e+00  8.131e-01  1.087e+00 
  1.7500e-08  4.159e-03  1.100e+00  1.097e+00  1.100e+00 
  1.8000e-08  8.502e-04  1.100e+00  1.100e+00  1.100e+00 
  1.8500e-08  1.624e-04  1.100e+00  1.100e+00  1.100e+00 
  1.9000e-08  1.089e+00  1.100e+00  1.100e+00  1.100e+00 
  1.9500e-08  1.100e+00  1.100e+00  1.100e+00  1.100e+00 
  2.0000e-08  1.100e+00  1.100e+00  1.100e+00  1.100e+00 
  2.0500e-08  1.100e+00  1.100e+00  1.100e+00  1.100e+00 
  2.1000e-08  1.028e+00  1.040e+00  1.043e+00  1.026e+00 
  2.1500e-08  4.364e-01  8.306e-01  8.779e-01  5.046e-01 
  2.2000e-08  3.633e-02  1.097e+00  1.098e+00  5.233e-02 
  2.2500e-08  2.424e-03  1.100e+00  1.100e+00  3.048e-03 
  2.3000e-08  7.710e-04  1.100e+00  1.100e+00  7.624e-04 
  2.3500e-08  5.392e-04  1.100e+00  1.100e+00  7.045e-04 
  2.4000e-08  1.088e+00  1.100e+00  1.100e+00  1.083e+00 
  2.4500e-08  1.100e+00  1.100e+00  1.100e+00  1.100e+00 
  2.5000e-08  1.100e+00  1.100e+00  1.100e+00  1.100e+00 
  2.5500e-08  1.100e+00  1.100e+00  1.100e+00  1.100e+00 
  2.6000e-08  1.040e+00  1.031e+00  1.025e+00  1.030e+00 
  2.6500e-08  6.221e-01  7.435e-01  6.586e-01  5.828e-01 
  2.7000e-08  1.023e+00  1.094e+00  1.078e+00  1.742e-01 
  2.7500e-08  1.099e+00  1.100e+00  1.100e+00  9.124e-03 
  2.8000e-08  1.100e+00  1.100e+00  1.100e+00  9.924e-04 
  2.8500e-08  1.096e+00  1.100e+00  1.100e+00  7.416e-04 
  2.9000e-08  1.100e+00  1.100e+00  1.100e+00  1.083e+00 
  2.9500e-08  1.100e+00  1.100e+00  1.100e+00  1.100e+00 
  3.0000e-08  1.100e+00  1.100e+00  1.100e+00  1.100e+00 
  3.0500e-08  1.100e+00  1.100e+00  1.100e+00  1.100e+00 
  3.1000e-08  1.055e+00  1.029e+00  1.037e+00  1.035e+00 
  3.1500e-08  7.560e-01  7.604e-01  9.090e-01  5.949e-01 
  3.2000e-08  1.094e+00  1.095e+00  1.099e+00  2.802e-01 
  3.2500e-08  1.100e+00  1.100e+00  1.100e+00  1.577e-02 
  3.3000e-08  1.100e+00  1.100e+00  1.100e+00  1.293e-03 
  3.3500e-08  1.097e+00  1.100e+00  1.100e+00  3.827e-03 
  3.4000e-08  1.100e+00  1.100e+00  1.100e+00  1.085e+00 
  3.4500e-08  1.100e+00  1.100e+00  1.100e+00  1.100e+00 
  3.5000e-08  1.100e+00  1.100e+00  1.100e+00  1.100e+00 
  3.5500e-08  1.100e+00  1.100e+00  1.100e+00  1.100e+00 
  3.6000e-08  1.019e+00  1.040e+00  1.011e+00  1.037e+00 
  3.6500e-08  3.056e-01  8.477e-01  5.563e-01  5.730e-01 
  3.7000e-08  1.927e-02  1.097e+00  1.412e-01  1.340e-01 
  3.7500e-08  1.584e-03  1.100e+00  9.510e-03  7.139e-03 
  3.8000e-08  7.357e-04  1.100e+00  1.214e-03  9.119e-04 
  3.8500e-08  8.713e-03  1.100e+00  3.692e-04  4.769e-04 
  3.9000e-08  1.089e+00  1.100e+00  1.087e+00  1.080e+00 
  3.9500e-08  1.100e+00  1.100e+00  1.100e+00  1.100e+00 
  4.0000e-08  1.100e+00  1.100e+00  1.100e+00  1.100e+00 
  4.0500e-08  1.100e+00  1.100e+00  1.100e+00  1.100e+00 
  4.1000e-08  1.002e+00  1.032e+00  1.045e+00  1.039e+00 
  4.1500e-08  2.345e-01  8.156e-01  9.104e-01  5.884e-01 
  4.2000e-08  1.381e-02  1.097e+00  1.099e+00  2.104e-01 
  4.2500e-08  1.325e-03  1.100e+00  1.100e+00  1.154e-02 
  4.3000e-08  7.265e-04  1.100e+00  1.100e+00  1.095e-03 
  4.3500e-08  1.115e-04  1.100e+00  1.100e+00  7.056e-04 
  4.4000e-08  1.088e+00  1.100e+00  1.100e+00  1.082e+00 
  4.4500e-08  1.100e+00  1.100e+00  1.100e+00  1.100e+00 
  4.5000e-08  1.100e+00  1.100e+00  1.100e+00  1.100e+00 
  4.5500e-08  1.100e+00  1.100e+00  1.100e+00  1.100e+00 
  4.6000e-08  1.067e+00  1.019e+00  1.025e+00  1.044e+00 
  4.6500e-08  9.246e-01  6.723e-01  6.667e-01  6.373e-01 
  4.7000e-08  1.098e+00  1.082e+00  1.082e+00  1.032e+00 
  4.7500e-08  1.100e+00  1.100e+00  1.100e+00  1.100e+00 
  4.8000e-08  1.100e+00  1.100e+00  1.100e+00  1.100e+00 
  4.8500e-08  1.100e+00  1.100e+00  1.100e+00  1.100e+00 
  4.9000e-08  1.100e+00  1.100e+00  1.100e+00  1.100e+00 
  4.9500e-08  1.100e+00  1.100e+00  1.100e+00  1.100e+00 
  5.0000e-08  1.100e+00  1.100e+00  1.100e+00  1.100e+00 
  5.0500e-08  1.100e+00  1.100e+00  1.100e+00  1.100e+00 
  5.1000e-08  1.043e+00  1.030e+00  1.039e+00  1.038e+00 
  5.1500e-08  7.723e-01  7.317e-01  9.362e-01  5.368e-01 
  5.2000e-08  1.095e+00  1.093e+00  1.099e+00  7.306e-02 
  5.2500e-08  1.100e+00  1.100e+00  1.100e+00  3.968e-03 
  5.3000e-08  1.100e+00  1.100e+00  1.100e+00  7.814e-04 
  5.3500e-08  1.096e+00  1.100e+00  1.100e+00  3.556e-03 
  5.4000e-08  1.100e+00  1.100e+00  1.100e+00  1.085e+00 
  5.4500e-08  1.100e+00  1.100e+00  1.100e+00  1.100e+00 
  5.5000e-08  1.100e+00  1.100e+00  1.100e+00  1.100e+00 
  5.5500e-08  1.100e+00  1.100e+00  1.100e+00  1.100e+00 
  5.6000e-08  9.987e-01  1.033e+00  1.014e+00  1.050e+00 
  5.6500e-08  2.545e-01  8.033e-01  5.685e-01  6.464e-01 
  5.7000e-08  1.516e-02  1.096e+00  1.918e-01  1.055e+00 
  5.7500e-08  1.394e-03  1.100e+00  1.324e-02  1.100e+00 
  5.8000e-08  7.287e-04  1.100e+00  1.409e-03  1.100e+00 
  5.8500e-08  2.878e-02  1.100e+00  8.662e-04  1.100e+00 
  5.9000e-08  1.090e+00  1.100e+00  1.087e+00  1.100e+00 
  5.9500e-08  1.100e+00  1.100e+00  1.100e+00  1.100e+00 
  6.0000e-08  1.100e+00  1.100e+00  1.100e+00  1.100e+00 
  6.0500e-08  1.100e+00  1.100e+00  1.100e+00  1.100e+00 
  6.1000e-08  1.024e+00  1.039e+00  1.024e+00  1.049e+00 
  6.1500e-08  3.716e-01  8.739e-01  8.694e-01  6.569e-01 
  6.2000e-08  2.593e-02  1.098e+00  1.098e+00  1.068e+00 
  6.2500e-08  1.815e-03  1.100e+00  1.100e+00  1.100e+00 
  6.3000e-08  7.453e-04  1.100e+00  1.100e+00  1.100e+00 
  6.3500e-08  3.323e-04  1.100e+00  1.100e+00  1.100e+00 
  6.4000e-08  1.088e+00  1.100e+00  1.100e+00  1.100e+00 
  6.4500e-08  1.100e+00  1.100e+00  1.100e+00  1.100e+00 
  6.5000e-08  1.100e+00  1.100e+00  1.100e+00  1.100e+00 
  6.5500e-08  1.100e+00  1.100e+00  1.100e+00  1.100e+00 
  6.6000e-08  1.041e+00  1.040e+00  1.013e+00  1.051e+00 
  6.6500e-08  6.066e-01  8.998e-01  6.048e-01  6.169e-01 
  6.7000e-08  9.176e-01  1.098e+00  8.809e-01  8.277e-01 
  6.7500e-08  1.099e+00  1.100e+00  1.098e+00  1.098e+00 
  6.8000e-08  1.100e+00  1.100e+00  1.100e+00  1.100e+00 
  6.8500e-08  1.100e+00  1.100e+00  1.100e+00  1.100e+00 
  6.9000e-08  1.100e+00  1.100e+00  1.100e+00  1.100e+00 
  6.9500e-08  1.100e+00  1.100e+00  1.100e+00  1.100e+00 
  7.0000e-08  1.100e+00  1.100e+00  1.100e+00  1.100e+00 
  7.0500e-08  1.100e+00  1.100e+00  1.100e+00  1.100e+00 
  7.1000e-08  1.030e+00  1.013e+00  1.017e+00  1.045e+00 
  7.1500e-08  4.844e-01  5.836e-01  7.907e-01  7.435e-01 
  7.2000e-08  5.105e-02  3.337e-01  1.097e+00  1.094e+00 
  7.2500e-08  3.182e-03  2.826e-02  1.100e+00  1.100e+00 
  7.3000e-08  8.042e-04  2.300e-03  1.100e+00  1.100e+00 
  7.3500e-08  7.144e-04  8.424e-04  1.100e+00  1.100e+00 
  7.4000e-08  1.086e+00  1.085e+00  1.100e+00  1.100e+00 
  7.4500e-08  1.100e+00  1.100e+00  1.100e+00  1.100e+00 
  7.5000e-08  1.100e+00  1.100e+00  1.100e+00  1.100e+00 
y

          ***** job concluded

   *** monte carlo  index =            5 ***

x

 time         voltage    voltage    voltage    voltage   
             q0         q1         q2         q3         
  0.0000e+00  1.100e+00  1.100e+00  1.100e+00  1.100e+00 
  5.0000e-10  1.100e+00  1.100e+00  1.100e+00  1.100e+00 
  1.0000e-09  1.097e+00  1.099e+00  1.081e+00  1.090e+00 
  1.5000e-09  6.988e-01  7.977e-01  5.734e-01  3.894e-01 
  2.0000e-09  1.085e+00  1.096e+00  1.542e-01  3.137e-02 
  2.5000e-09  1.100e+00  1.100e+00  9.222e-03  2.456e-03 
  3.0000e-09  1.100e+00  1.100e+00  1.011e-03  7.913e-04 
  3.5000e-09  1.097e+00  1.098e+00 -1.458e-05  8.998e-05 
  4.0000e-09  1.100e+00  1.100e+00  1.085e+00  1.085e+00 
  4.5000e-09  1.100e+00  1.100e+00  1.100e+00  1.100e+00 
  5.0000e-09  1.100e+00  1.100e+00  1.100e+00  1.100e+00 
  5.5000e-09  1.100e+00  1.100e+00  1.100e+00  1.100e+00 
  6.0000e-09  1.084e+00  1.101e+00  1.088e+00  1.101e+00 
  6.5000e-09  4.271e-01  8.592e-01  6.583e-01  5.763e-01 
  7.0000e-09  3.679e-02  1.098e+00  1.067e+00  1.351e-01 
  7.5000e-09  2.566e-03  1.100e+00  1.100e+00  9.013e-03 
  8.0000e-09  6.339e-04  1.100e+00  1.100e+00  1.108e-03 
  8.5000e-09  7.949e-03  1.096e+00  1.100e+00  4.979e-04 
  9.0000e-09  1.086e+00  1.100e+00  1.100e+00  1.085e+00 
  9.5000e-09  1.100e+00  1.100e+00  1.100e+00  1.100e+00 
  1.0000e-08  1.100e+00  1.100e+00  1.100e+00  1.100e+00 
  1.0500e-08  1.100e+00  1.100e+00  1.100e+00  1.100e+00 
  1.1000e-08  1.099e+00  1.080e+00  1.070e+00  1.095e+00 
  1.1500e-08  7.340e-01  4.967e-01  3.770e-01  4.630e-01 
  1.2000e-08  1.091e+00  5.919e-02  2.721e-02  4.439e-02 
  1.2500e-08  1.100e+00  3.963e-03  2.009e-03  3.242e-03 
  1.3000e-08  1.100e+00  7.824e-04  6.994e-04  8.315e-04 
  1.3500e-08  1.099e+00 -1.115e-04  2.223e-04 -1.543e-04 
  1.4000e-08  1.100e+00  1.086e+00  1.086e+00  1.086e+00 
  1.4500e-08  1.100e+00  1.100e+00  1.100e+00  1.100e+00 
  1.5000e-08  1.100e+00  1.100e+00  1.100e+00  1.100e+00 
  1.5500e-08  1.100e+00  1.100e+00  1.100e+00  1.100e+00 
  1.6000e-08  1.088e+00  1.089e+00  1.077e+00  1.101e+00 
  1.6500e-08  5.983e-01  5.662e-01  4.802e-01  5.517e-01 
  1.7000e-08  5.252e-01  1.558e-01  4.762e-02  9.230e-02 
  1.7500e-08  8.784e-02  9.999e-03  3.079e-03  6.142e-03 
  1.8000e-08  5.407e-03  1.125e-03  7.594e-04  1.005e-03 
  1.8500e-08  1.786e-03  5.018e-03  2.426e-02  1.126e-03 
  1.9000e-08  1.086e+00  1.086e+00  1.087e+00  1.086e+00 
  1.9500e-08  1.100e+00  1.100e+00  1.100e+00  1.100e+00 
  2.0000e-08  1.100e+00  1.100e+00  1.100e+00  1.100e+00 
  2.0500e-08  1.100e+00  1.100e+00  1.100e+00  1.100e+00 
  2.1000e-08  1.090e+00  1.091e+00  1.093e+00  1.092e+00 
  2.1500e-08  6.163e-01  7.749e-01  5.758e-01  4.681e-01 
  2.2000e-08  9.109e-01  1.095e+00  1.607e-01  4.602e-02 
  2.2500e-08  1.098e+00  1.100e+00  9.612e-03  3.320e-03 
  2.3000e-08  1.100e+00  1.100e+00  1.086e-03  8.504e-04 
  2.3500e-08  1.097e+00  1.096e+00 -1.688e-05  4.842e-04 
  2.4000e-08  1.100e+00  1.100e+00  1.085e+00  1.085e+00 
  2.4500e-08  1.100e+00  1.100e+00  1.100e+00  1.100e+00 
  2.5000e-08  1.100e+00  1.100e+00  1.100e+00  1.100e+00 
  2.5500e-08  1.100e+00  1.100e+00  1.100e+00  1.100e+00 
  2.6000e-08  1.090e+00  1.098e+00  1.085e+00  1.099e+00 
  2.6500e-08  5.870e-01  8.008e-01  4.498e-01  5.680e-01 
  2.7000e-08  2.911e-01  1.096e+00  3.936e-02  1.169e-01 
  2.7500e-08  2.033e-02  1.100e+00  2.627e-03  7.682e-03 
  2.8000e-08  1.546e-03  1.100e+00  7.323e-04  1.073e-03 
  2.8500e-08  3.130e-04  1.097e+00  3.184e-04  5.708e-03 
  2.9000e-08  1.086e+00  1.100e+00  1.085e+00  1.087e+00 
  2.9500e-08  1.100e+00  1.100e+00  1.100e+00  1.100e+00 
  3.0000e-08  1.100e+00  1.100e+00  1.100e+00  1.100e+00 
  3.0500e-08  1.100e+00  1.100e+00  1.100e+00  1.100e+00 
  3.1000e-08  1.101e+00  1.101e+00  1.101e+00  1.098e+00 
  3.1500e-08  7.847e-01  8.251e-01  6.641e-01  5.493e-01 
  3.2000e-08  1.095e+00  1.097e+00  1.072e+00  8.972e-02 
  3.2500e-08  1.100e+00  1.100e+00  1.100e+00  5.982e-03 
  3.3000e-08  1.100e+00  1.100e+00  1.100e+00  9.521e-04 
  3.3500e-08  1.097e+00  1.097e+00  1.096e+00  1.211e-02 
  3.4000e-08  1.100e+00  1.100e+00  1.100e+00  1.087e+00 
  3.4500e-08  1.100e+00  1.100e+00  1.100e+00  1.100e+00 
  3.5000e-08  1.100e+00  1.100e+00  1.100e+00  1.100e+00 
  3.5500e-08  1.100e+00  1.100e+00  1.100e+00  1.100e+00 
  3.6000e-08  1.083e+00  1.100e+00  1.075e+00  1.097e+00 
  3.6500e-08  4.467e-01  6.908e-01  3.021e-01  5.041e-01 
  3.7000e-08  4.151e-02  1.087e+00  1.975e-02  5.891e-02 
  3.7500e-08  2.683e-03  1.100e+00  1.553e-03  3.913e-03 
  3.8000e-08  6.358e-04  1.100e+00  6.764e-04  8.549e-04 
  3.8500e-08  1.307e-02  1.097e+00  4.610e-04  4.156e-03 
  3.9000e-08  1.086e+00  1.100e+00  1.084e+00  1.086e+00 
  3.9500e-08  1.100e+00  1.100e+00  1.100e+00  1.100e+00 
  4.0000e-08  1.100e+00  1.100e+00  1.100e+00  1.100e+00 
  4.0500e-08  1.100e+00  1.100e+00  1.100e+00  1.100e+00 
  4.1000e-08  1.101e+00  1.079e+00  1.079e+00  1.097e+00 
  4.1500e-08  7.553e-01  5.267e-01  4.855e-01  5.044e-01 
  4.2000e-08  1.093e+00  8.151e-02  5.001e-02  5.910e-02 
  4.2500e-08  1.100e+00  4.969e-03  3.020e-03  3.884e-03 
  4.3000e-08  1.100e+00  8.274e-04  7.418e-04  8.612e-04 
  4.3500e-08  1.100e+00 -5.443e-05 -3.904e-05  4.976e-04 
  4.4000e-08  1.100e+00  1.085e+00  1.085e+00  1.085e+00 
  4.4500e-08  1.100e+00  1.100e+00  1.100e+00  1.100e+00 
  4.5000e-08  1.100e+00  1.100e+00  1.100e+00  1.100e+00 
  4.5500e-08  1.100e+00  1.100e+00  1.100e+00  1.100e+00 
  4.6000e-08  1.085e+00  1.100e+00  1.086e+00  1.100e+00 
[...]
  7.5000e-08  1.100e+00  1.100e+00  1.100e+00  1.100e+00 
y

          ***** job concluded

   *** monte carlo  index =            8 ***

x

 time         voltage    voltage    voltage    voltage   
             q0         q1         q2         q3         
  0.0000e+00  1.100e+00  1.100e+00  1.100e+00  1.100e+00 
  5.0000e-10  1.100e+00  1.100e+00  1.100e+00  1.100e+00 
  1.0000e-09  1.016e+00  9.976e-01  1.030e+00  1.001e+00 
  1.5000e-09  6.999e-01  4.852e-01  5.107e-01  2.173e-01 
  2.0000e-09  1.090e+00  5.419e-02  6.474e-02  1.214e-02 
  2.5000e-09  1.100e+00  2.934e-03  4.316e-03  1.176e-03 
  3.0000e-09  1.100e+00  4.347e-04  5.550e-04  6.658e-04 
  3.5000e-09  1.097e+00  1.399e-04  4.523e-02  4.231e-02 
  4.0000e-09  1.100e+00  1.078e+00  1.077e+00  1.087e+00 
  4.5000e-09  1.100e+00  1.100e+00  1.100e+00  1.100e+00 
  5.0000e-09  1.100e+00  1.100e+00  1.100e+00  1.100e+00 
  5.5000e-09  1.100e+00  1.100e+00  1.100e+00  1.100e+00 
  6.0000e-09  1.023e+00  9.994e-01  1.045e+00  1.014e+00 
  6.5000e-09  8.268e-01  4.494e-01  7.394e-01  2.882e-01 
  7.0000e-09  1.098e+00  4.014e-02  1.090e+00  1.695e-02 
  7.5000e-09  1.100e+00  2.243e-03  1.100e+00  1.405e-03 
  8.0000e-09  1.100e+00  4.066e-04  1.100e+00  6.750e-04 
  8.5000e-09  1.097e+00  1.454e-02  1.097e+00  4.212e-03 
  9.0000e-09  1.100e+00  1.080e+00  1.100e+00  1.085e+00 
  9.5000e-09  1.100e+00  1.100e+00  1.100e+00  1.100e+00 
  1.0000e-08  1.100e+00  1.100e+00  1.100e+00  1.100e+00 
  1.0500e-08  1.100e+00  1.100e+00  1.100e+00  1.100e+00 
  1.1000e-08  1.011e+00  1.002e+00  1.061e+00  1.010e+00 
  1.1500e-08  7.206e-01  5.461e-01  7.322e-01  2.263e-01 
  1.2000e-08  1.093e+00  1.319e-01  1.089e+00  1.263e-02 
  1.2500e-08  1.100e+00  6.960e-03  1.100e+00  1.189e-03 
  1.3000e-08  1.100e+00  5.888e-04  1.100e+00  6.652e-04 
  1.3500e-08  1.097e+00 -1.157e-04  1.096e+00  5.870e-02 
  1.4000e-08  1.100e+00  1.079e+00  1.100e+00  1.088e+00 
  1.4500e-08  1.100e+00  1.100e+00  1.100e+00  1.100e+00 
  1.5000e-08  1.100e+00  1.100e+00  1.100e+00  1.100e+00 
  1.5500e-08  1.100e+00  1.100e+00  1.100e+00  1.100e+00 
  1.6000e-08  1.014e+00  1.013e+00  1.053e+00  1.013e+00 
  1.6500e-08  7.312e-01  7.030e-01  6.567e-01  2.401e-01 
  1.7000e-08  1.094e+00  1.086e+00  1.043e+00  1.354e-02 
  1.7500e-08  1.100e+00  1.100e+00  1.100e+00  1.228e-03 
  1.8000e-08  1.100e+00  1.100e+00  1.100e+00  6.668e-04 
  1.8500e-08  1.097e+00  1.100e+00  1.097e+00  8.262e-02 
  1.9000e-08  1.100e+00  1.100e+00  1.100e+00  1.088e+00 
  1.9500e-08  1.100e+00  1.100e+00  1.100e+00  1.100e+00 
  2.0000e-08  1.100e+00  1.100e+00  1.100e+00  1.100e+00 
  2.0500e-08  1.100e+00  1.100e+00  1.100e+00  1.100e+00 
  2.1000e-08  1.009e+00  1.000e+00  1.034e+00  1.031e+00 
  2.1500e-08  6.169e-01  4.488e-01  5.267e-01  3.682e-01 
  2.2000e-08  9.476e-01  3.993e-02  7.397e-02  2.397e-02 
  2.2500e-08  1.099e+00  2.233e-03  4.928e-03  1.736e-03 
  2.3000e-08  1.100e+00  4.043e-04  5.840e-04  6.875e-04 
  2.3500e-08  1.097e+00  3.812e-03  1.058e-02  1.085e-02 
  2.4000e-08  1.100e+00  1.080e+00  1.074e+00  1.085e+00 
  2.4500e-08  1.100e+00  1.100e+00  1.100e+00  1.100e+00 
  2.5000e-08  1.100e+00  1.100e+00  1.100e+00  1.100e+00 
  2.5500e-08  1.100e+00  1.100e+00  1.100e+00  1.100e+00 
  2.6000e-08  1.031e+00  1.006e+00  1.057e+00  1.009e+00 
  2.6500e-08  8.727e-01  4.546e-01  7.968e-01  2.420e-01 
  2.7000e-08  1.098e+00  4.159e-02  1.095e+00  1.368e-02 
  2.7500e-08  1.100e+00  2.169e-03  1.100e+00  1.205e-03 
  2.8000e-08  1.100e+00  3.977e-04  1.100e+00  6.652e-04 
  2.8500e-08  1.097e+00  2.123e-02  1.096e+00  6.639e-02 
  2.9000e-08  1.100e+00  1.081e+00  1.100e+00  1.087e+00 
  2.9500e-08  1.100e+00  1.100e+00  1.100e+00  1.100e+00 
  3.0000e-08  1.100e+00  1.100e+00  1.100e+00  1.100e+00 
  3.0500e-08  1.100e+00  1.100e+00  1.100e+00  1.100e+00 
  3.1000e-08  1.015e+00  1.001e+00  1.026e+00  1.020e+00 
  3.1500e-08  7.903e-01  4.487e-01  3.616e-01  3.039e-01 
  3.2000e-08  1.097e+00  3.994e-02  2.887e-02  1.805e-02 
  3.2500e-08  1.100e+00  2.220e-03  2.060e-03  1.451e-03 
  3.3000e-08  1.100e+00  4.092e-04  4.379e-04  6.784e-04 
  3.3500e-08  1.098e+00 -1.425e-04  5.153e-02  8.918e-02 
  3.4000e-08  1.100e+00  1.080e+00  1.077e+00  1.089e+00 
  3.4500e-08  1.100e+00  1.100e+00  1.100e+00  1.100e+00 
  3.5000e-08  1.100e+00  1.100e+00  1.100e+00  1.100e+00 
  3.5500e-08  1.100e+00  1.100e+00  1.100e+00  1.100e+00 
  3.6000e-08  1.000e+00  1.013e+00  1.055e+00  1.009e+00 
  3.6500e-08  5.769e-01  5.795e-01  6.849e-01  2.468e-01 
  3.7000e-08  2.142e-01  5.021e-01  1.075e+00  1.398e-02 
  3.7500e-08  1.598e-02  7.255e-02  1.100e+00  1.268e-03 
  3.8000e-08  1.637e-03  3.683e-03  1.100e+00  6.714e-04 
  3.8500e-08  6.280e-02  3.783e-03  1.096e+00  5.748e-02 
  3.9000e-08  1.084e+00  1.080e+00  1.100e+00  1.087e+00 
  3.9500e-08  1.100e+00  1.100e+00  1.100e+00  1.100e+00 
  4.0000e-08  1.100e+00  1.100e+00  1.100e+00  1.100e+00 
  4.0500e-08  1.100e+00  1.100e+00  1.100e+00  1.100e+00 
  4.1000e-08  1.008e+00  9.970e-01  1.033e+00  9.976e-01 
  4.1500e-08  6.524e-01  4.493e-01  5.870e-01  2.069e-01 
  4.2000e-08  1.070e+00  4.042e-02  1.745e-01  1.159e-02 
  4.2500e-08  1.100e+00  2.110e-03  1.128e-02  1.113e-03 
  4.3000e-08  1.100e+00  3.992e-04  9.226e-04  6.628e-04 
  4.3500e-08  1.097e+00  1.214e-03  2.227e-02  7.627e-02 
  4.4000e-08  1.100e+00  1.079e+00  1.074e+00  1.088e+00 
  4.4500e-08  1.100e+00  1.100e+00  1.100e+00  1.100e+00 
  4.5000e-08  1.100e+00  1.100e+00  1.100e+00  1.100e+00 
  4.5500e-08  1.100e+00  1.100e+00  1.100e+00  1.100e+00 
  4.6000e-08  1.022e+00  9.873e-01  1.042e+00  1.030e+00 
  4.6500e-08  8.610e-01  3.323e-01  7.388e-01  4.524e-01 
  4.7000e-08  1.098e+00  2.141e-02  1.090e+00  3.690e-02 
  4.7500e-08  1.100e+00  1.237e-03  1.100e+00  2.197e-03 
  4.8000e-08  1.100e+00  3.611e-04  1.100e+00  7.000e-04 
  4.8500e-08  1.097e+00  4.645e-03  1.097e+00  3.933e-02 
  4.9000e-08  1.100e+00  1.081e+00  1.100e+00  1.087e+00 
  4.9500e-08  1.100e+00  1.100e+00  1.100e+00  1.100e+00 
  5.0000e-08  1.100e+00  1.100e+00  1.100e+00  1.100e+00 
  5.0500e-08  1.100e+00  1.100e+00  1.100e+00  1.100e+00 
  5.1000e-08  1.027e+00  9.959e-01  1.028e+00  1.017e+00 
  5.1500e-08  8.553e-01  3.488e-01  4.153e-01  2.811e-01 
  5.2000e-08  1.098e+00  2.297e-02  3.688e-02  1.649e-02 
  5.2500e-08  1.100e+00  1.291e-03  2.378e-03  1.304e-03 
  5.3000e-08  1.100e+00  3.664e-04  4.498e-04  6.702e-04 
  5.3500e-08  1.096e+00  1.552e-02  7.431e-02  7.045e-02 
  5.4000e-08  1.100e+00  1.080e+00  1.078e+00  1.088e+00 
  5.4500e-08  1.100e+00  1.100e+00  1.100e+00  1.100e+00 
  5.5000e-08  1.100e+00  1.100e+00  1.100e+00  1.100e+00 
  5.5500e-08  1.100e+00  1.100e+00  1.100e+00  1.100e+00 
  5.6000e-08  9.965e-01  1.020e+00  1.045e+00  1.009e+00 
  5.6500e-08  4.975e-01  6.285e-01  5.678e-01  2.322e-01 
  5.7000e-08  6.558e-02  1.044e+00  1.191e-01  1.300e-02 
  5.7500e-08  4.865e-03  1.099e+00  7.905e-03  1.211e-03 
  5.8000e-08  9.544e-04  1.100e+00  7.295e-04  6.657e-04 
  5.8500e-08  4.422e-02  1.098e+00  3.742e-02  9.729e-02 
  5.9000e-08  1.083e+00  1.100e+00  1.076e+00  1.089e+00 
  5.9500e-08  1.100e+00  1.100e+00  1.100e+00  1.100e+00 
  6.0000e-08  1.100e+00  1.100e+00  1.100e+00  1.100e+00 
  6.0500e-08  1.100e+00  1.100e+00  1.100e+00  1.100e+00 
  6.1000e-08  1.020e+00  1.022e+00  1.040e+00  1.009e+00 
  6.1500e-08  6.819e-01  6.763e-01  5.332e-01  2.552e-01 
  6.2000e-08  1.086e+00  1.080e+00  7.845e-02  1.459e-02 
  6.2500e-08  1.100e+00  1.100e+00  5.210e-03  1.292e-03 
  6.3000e-08  1.100e+00  1.100e+00  6.080e-04  6.710e-04 
  6.3500e-08  1.097e+00  1.098e+00  3.982e-02  5.212e-02 
  6.4000e-08  1.100e+00  1.100e+00  1.076e+00  1.087e+00 
  6.4500e-08  1.100e+00  1.100e+00  1.100e+00  1.100e+00 
  6.5000e-08  1.100e+00  1.100e+00  1.100e+00  1.100e+00 
  6.5500e-08  1.100e+00  1.100e+00  1.100e+00  1.100e+00 
  6.6000e-08  1.009e+00  9.955e-01  1.030e+00  1.014e+00 
  6.6500e-08  5.805e-01  3.611e-01  4.356e-01  2.973e-01 
  6.7000e-08  2.403e-01  2.436e-02  4.072e-02  1.772e-02 
  6.7500e-08  1.807e-02  1.444e-03  2.759e-03  1.422e-03 
  6.8000e-08  1.688e-03  3.722e-04  4.688e-04  6.746e-04 
  6.8500e-08  2.074e-02  3.202e-02  5.091e-02  1.184e-02 
  6.9000e-08  1.082e+00  1.081e+00  1.076e+00  1.086e+00 
  6.9500e-08  1.100e+00  1.100e+00  1.100e+00  1.100e+00 
  7.0000e-08  1.100e+00  1.100e+00  1.100e+00  1.100e+00 
  7.0500e-08  1.100e+00  1.100e+00  1.100e+00  1.100e+00 
  7.1000e-08  1.023e+00  9.660e-01  1.027e+00  1.014e+00 
  7.1500e-08  8.901e-01  2.420e-01  6.157e-01  3.520e-01 
  7.2000e-08  1.099e+00  1.373e-02  5.339e-01  2.224e-02 
  7.2500e-08  1.100e+00  9.628e-04  8.667e-02  1.657e-03 
  7.3000e-08  1.100e+00  3.559e-04  5.503e-03  6.882e-04 
  7.3500e-08  1.096e+00  4.646e-05  5.437e-02  2.945e-03 
  7.4000e-08  1.100e+00  1.080e+00  1.077e+00  1.086e+00 
  7.4500e-08  1.100e+00  1.100e+00  1.100e+00  1.100e+00 
  7.5000e-08  1.100e+00  1.100e+00  1.100e+00  1.100e+00 
y
x

 time         voltage    voltage    voltage    voltage   
             q4         q5         q6         q7         
  0.0000e+00  1.100e+00  1.100e+00  1.100e+00  1.100e+00 
  5.0000e-10  1.100e+00  1.100e+00  1.100e+00  1.100e+00 
  1.0000e-09  1.019e+00  1.024e+00  1.021e+00  1.015e+00 
  1.5000e-09  8.919e-01  8.137e-01  3.602e-01  5.812e-01 
  2.0000e-09  1.098e+00  1.095e+00  2.525e-02  3.348e-01 
  2.5000e-09  1.100e+00  1.100e+00  2.049e-03  2.630e-02 
  3.0000e-09  1.100e+00  1.100e+00  8.724e-04  2.370e-03 
  3.5000e-09  1.097e+00  1.096e+00  7.733e-02  5.880e-03 
  4.0000e-09  1.100e+00  1.100e+00  1.092e+00  1.091e+00 
  4.5000e-09  1.100e+00  1.100e+00  1.100e+00  1.100e+00 
  5.0000e-09  1.100e+00  1.100e+00  1.100e+00  1.100e+00 
  5.5000e-09  1.100e+00  1.100e+00  1.100e+00  1.100e+00 
  6.0000e-09  1.025e+00  1.014e+00  1.036e+00  1.023e+00 
  6.5000e-09  9.159e-01  6.104e-01  4.317e-01  6.029e-01 
  7.0000e-09  1.098e+00  8.519e-01  3.565e-02  8.480e-01 
  7.5000e-09  1.100e+00  1.097e+00  2.591e-03  1.098e+00 
  8.0000e-09  1.100e+00  1.100e+00  8.963e-04  1.100e+00 
  8.5000e-09  1.096e+00  1.096e+00  1.232e-02  1.097e+00 
  9.0000e-09  1.100e+00  1.100e+00  1.090e+00  1.100e+00 
  9.5000e-09  1.100e+00  1.100e+00  1.100e+00  1.100e+00 
  1.0000e-08  1.100e+00  1.100e+00  1.100e+00  1.100e+00 
  1.0500e-08  1.100e+00  1.100e+00  1.100e+00  1.100e+00 
  1.1000e-08  1.032e+00  1.036e+00  1.018e+00  1.017e+00 
  1.1500e-08  8.711e-01  9.640e-01  3.261e-01  6.307e-01 
  1.2000e-08  1.098e+00  1.099e+00  2.163e-02  1.049e+00 
  1.2500e-08  1.100e+00  1.100e+00  1.847e-03  1.100e+00 
  1.3000e-08  1.100e+00  1.100e+00  8.616e-04  1.100e+00 
  1.3500e-08  1.097e+00  1.096e+00  8.292e-02  1.097e+00 
  1.4000e-08  1.100e+00  1.100e+00  1.092e+00  1.100e+00 
  1.4500e-08  1.100e+00  1.100e+00  1.100e+00  1.100e+00 
  1.5000e-08  1.100e+00  1.100e+00  1.100e+00  1.100e+00 
  1.5500e-08  1.100e+00  1.100e+00  1.100e+00  1.100e+00 
  1.6000e-08  1.023e+00  1.026e+00  1.011e+00  1.015e+00 
  1.6500e-08  8.057e-01  9.011e-01  2.677e-01  5.449e-01 
  1.7000e-08  1.096e+00  1.098e+00  1.677e-02  1.154e-01 
  1.7500e-08  1.100e+00  1.100e+00  1.600e-03  7.801e-03 
  1.8000e-08  1.100e+00  1.100e+00  8.513e-04  1.425e-03 
  1.8500e-08  1.097e+00  1.096e+00  8.762e-02  4.236e-02 
  1.9000e-08  1.100e+00  1.100e+00  1.092e+00  1.092e+00 
  1.9500e-08  1.100e+00  1.100e+00  1.100e+00  1.100e+00 
  2.0000e-08  1.100e+00  1.100e+00  1.100e+00  1.100e+00 
  2.0500e-08  1.100e+00  1.100e+00  1.100e+00  1.100e+00 
  2.1000e-08  1.044e+00  1.018e+00  1.036e+00  1.012e+00 
  2.1500e-08  9.374e-01  8.202e-01  4.748e-01  6.211e-01 
  2.2000e-08  1.099e+00  1.095e+00  4.688e-02  1.022e+00 
  2.2500e-08  1.100e+00  1.100e+00  3.180e-03  1.100e+00 
  2.3000e-08  1.100e+00  1.100e+00  9.200e-04  1.100e+00 
  2.3500e-08  1.097e+00  1.096e+00  4.470e-02  1.097e+00 
  2.4000e-08  1.100e+00  1.100e+00  1.091e+00  1.100e+00 
  2.4500e-08  1.100e+00  1.100e+00  1.100e+00  1.100e+00 
  2.5000e-08  1.100e+00  1.100e+00  1.100e+00  1.100e+00 
  2.5500e-08  1.100e+00  1.100e+00  1.100e+00  1.100e+00 
  2.6000e-08  1.042e+00  1.028e+00  1.011e+00  1.015e+00 
  2.6500e-08  9.230e-01  9.320e-01  2.740e-01  6.633e-01 
  2.7000e-08  1.098e+00  1.098e+00  1.728e-02  1.081e+00 
  2.7500e-08  1.100e+00  1.100e+00  1.588e-03  1.100e+00 
  2.8000e-08  1.100e+00  1.100e+00  8.498e-04  1.100e+00 
  2.8500e-08  1.097e+00  1.096e+00  6.926e-02  1.098e+00 
  2.9000e-08  1.100e+00  1.100e+00  1.091e+00  1.100e+00 
  2.9500e-08  1.100e+00  1.100e+00  1.100e+00  1.100e+00 
  3.0000e-08  1.100e+00  1.100e+00  1.100e+00  1.100e+00 
  3.0500e-08  1.100e+00  1.100e+00  1.100e+00  1.100e+00 
  3.1000e-08  1.026e+00  1.013e+00  1.024e+00  1.014e+00 
  3.1500e-08  8.718e-01  7.660e-01  4.396e-01  6.001e-01 
  3.2000e-08  1.098e+00  1.093e+00  3.728e-02  7.982e-01 
  3.2500e-08  1.100e+00  1.100e+00  2.663e-03  1.097e+00 
  3.3000e-08  1.100e+00  1.100e+00  9.030e-04  1.100e+00 
  3.3500e-08  1.098e+00  1.096e+00  7.860e-02  1.097e+00 
  3.4000e-08  1.100e+00  1.100e+00  1.092e+00  1.100e+00 
  3.4500e-08  1.100e+00  1.100e+00  1.100e+00  1.100e+00 
  3.5000e-08  1.100e+00  1.100e+00  1.100e+00  1.100e+00 
  3.5500e-08  1.100e+00  1.100e+00  1.100e+00  1.100e+00 
  3.6000e-08  1.044e+00  1.043e+00  1.015e+00  1.018e+00 
  3.6500e-08  9.590e-01  9.819e-01  2.997e-01  6.498e-01 
  3.7000e-08  1.099e+00  1.099e+00  1.937e-02  1.073e+00 
  3.7500e-08  1.100e+00  1.100e+00  1.757e-03  1.100e+00 
  3.8000e-08  1.100e+00  1.100e+00  8.625e-04  1.100e+00 
  3.8500e-08  1.097e+00  1.096e+00  7.534e-02  1.097e+00 
  3.9000e-08  1.100e+00  1.100e+00  1.091e+00  1.100e+00 
  3.9500e-08  1.100e+00  1.100e+00  1.100e+00  1.100e+00 
  4.0000e-08  1.100e+00  1.100e+00  1.100e+00  1.100e+00 
  4.0500e-08  1.100e+00  1.100e+00  1.100e+00  1.100e+00 
  4.1000e-08  1.029e+00  1.030e+00  1.031e+00  1.026e+00 
  4.1500e-08  8.712e-01  9.128e-01  4.195e-01  7.470e-01 
  4.2000e-08  1.098e+00  1.098e+00  3.365e-02  1.095e+00 
  4.2500e-08  1.100e+00  1.100e+00  2.365e-03  1.100e+00 
  4.3000e-08  1.100e+00  1.100e+00  8.850e-04  1.100e+00 
  4.3500e-08  1.097e+00  1.096e+00  6.293e-02  1.097e+00 
  4.4000e-08  1.100e+00  1.100e+00  1.091e+00  1.100e+00 
  4.4500e-08  1.100e+00  1.100e+00  1.100e+00  1.100e+00 
  4.5000e-08  1.100e+00  1.100e+00  1.100e+00  1.100e+00 
  4.5500e-08  1.100e+00  1.100e+00  1.100e+00  1.100e+00 
  4.6000e-08  1.039e+00  1.029e+00  1.030e+00  1.006e+00 
  4.6500e-08  9.724e-01  8.954e-01  4.032e-01  4.931e-01 
  4.7000e-08  1.099e+00  1.097e+00  3.113e-02  6.312e-02 
  4.7500e-08  1.100e+00  1.100e+00  2.224e-03  4.418e-03 
  4.8000e-08  1.100e+00  1.100e+00  8.737e-04  1.253e-03 
  4.8500e-08  1.097e+00  1.096e+00  2.737e-02  5.871e-02 
  4.9000e-08  1.100e+00  1.100e+00  1.091e+00  1.092e+00 
  4.9500e-08  1.100e+00  1.100e+00  1.100e+00  1.100e+00 
  5.0000e-08  1.100e+00  1.100e+00  1.100e+00  1.100e+00 
  5.0500e-08  1.100e+00  1.100e+00  1.100e+00  1.100e+00 
  5.1000e-08  1.055e+00  1.025e+00  1.033e+00  1.013e+00 
  5.1500e-08  1.000e+00  9.119e-01  4.389e-01  5.337e-01 
  5.2000e-08  1.099e+00  1.098e+00  3.729e-02  9.789e-02 
  5.2500e-08  1.100e+00  1.100e+00  2.492e-03  6.328e-03 
  5.3000e-08  1.100e+00  1.100e+00  8.903e-04  1.359e-03 
  5.3500e-08  1.097e+00  1.097e+00  5.551e-02  5.865e-02 
  5.4000e-08  1.100e+00  1.100e+00  1.091e+00  1.092e+00 
  5.4500e-08  1.100e+00  1.100e+00  1.100e+00  1.100e+00 
  5.5000e-08  1.100e+00  1.100e+00  1.100e+00  1.100e+00 
  5.5500e-08  1.100e+00  1.100e+00  1.100e+00  1.100e+00 
  5.6000e-08  1.016e+00  1.024e+00  1.011e+00  1.032e+00 
  5.6500e-08  6.734e-01  8.717e-01  2.658e-01  7.851e-01 
  5.7000e-08  1.080e+00  1.097e+00  1.659e-02  1.097e+00 
  5.7500e-08  1.100e+00  1.100e+00  1.602e-03  1.100e+00 
  5.8000e-08  1.100e+00  1.100e+00  8.508e-04  1.100e+00 
  5.8500e-08  1.097e+00  1.096e+00  9.526e-02  1.097e+00 
  5.9000e-08  1.100e+00  1.100e+00  1.092e+00  1.100e+00 
  5.9500e-08  1.100e+00  1.100e+00  1.100e+00  1.100e+00 
  6.0000e-08  1.100e+00  1.100e+00  1.100e+00  1.100e+00 
  6.0500e-08  1.100e+00  1.100e+00  1.100e+00  1.100e+00 
  6.1000e-08  1.033e+00  1.040e+00  1.038e+00  1.023e+00 
  6.1500e-08  8.891e-01  9.665e-01  4.496e-01  5.830e-01 
  6.2000e-08  1.098e+00  1.099e+00  3.948e-02  3.647e-01 
  6.2500e-08  1.100e+00  1.100e+00  2.787e-03  3.014e-02 
  6.3000e-08  1.100e+00  1.100e+00  9.065e-04  2.595e-03 
  6.3500e-08  1.096e+00  1.097e+00  9.141e-02  8.689e-02 
  6.4000e-08  1.100e+00  1.100e+00  1.092e+00  1.093e+00 
  6.4500e-08  1.100e+00  1.100e+00  1.100e+00  1.100e+00 
  6.5000e-08  1.100e+00  1.100e+00  1.100e+00  1.100e+00 
  6.5500e-08  1.100e+00  1.100e+00  1.100e+00  1.100e+00 
  6.6000e-08  1.041e+00  1.018e+00  1.035e+00  1.024e+00 
  6.6500e-08  9.458e-01  7.832e-01  4.261e-01  6.437e-01 
  6.7000e-08  1.099e+00  1.094e+00  3.471e-02  1.067e+00 
  6.7500e-08  1.100e+00  1.100e+00  2.503e-03  1.100e+00 
  6.8000e-08  1.100e+00  1.100e+00  8.901e-04  1.100e+00 
  6.8500e-08  1.096e+00  1.096e+00  2.751e-02  1.097e+00 
  6.9000e-08  1.100e+00  1.100e+00  1.090e+00  1.100e+00 
  6.9500e-08  1.100e+00  1.100e+00  1.100e+00  1.100e+00 
  7.0000e-08  1.100e+00  1.100e+00  1.100e+00  1.100e+00 
  7.0500e-08  1.100e+00  1.100e+00  1.100e+00  1.100e+00 
  7.1000e-08  1.025e+00  1.017e+00  1.003e+00  1.014e+00 
  7.1500e-08  8.821e-01  8.372e-01  2.709e-01  6.259e-01 
  7.2000e-08  1.098e+00  1.096e+00  1.699e-02  1.037e+00 
  7.2500e-08  1.100e+00  1.100e+00  1.633e-03  1.100e+00 
  7.3000e-08  1.100e+00  1.100e+00  8.566e-04  1.100e+00 
  7.3500e-08  1.096e+00  1.096e+00  3.238e-02  1.097e+00 
  7.4000e-08  1.100e+00  1.100e+00  1.091e+00  1.100e+00 
  7.4500e-08  1.100e+00  1.100e+00  1.100e+00  1.100e+00 
  7.5000e-08  1.100e+00  1.100e+00  1.100e+00  1.100e+00 
y

          ***** job concluded
1****** HSPICE -- R-2020.12-1 linux64 (Jan 03 2021 6798279) ******              
 ******  
 * puf simulation

 ****** job statistics summary tnom=  25.000 temp=  75.000 ******
  
 ******  Machine Information  ******
 CPU:
 model name	: Intel(R) Xeon(R) CPU E5-2680 v2 @ 2.80GHz
 cpu MHz	: 2799.999
  
 OS:
 Linux version 4.18.0-372.26.1.el8_6.x86_64 (mockbuild@x86-vm-08.build.eng.bos.redhat.com) (gcc version 8.5.0 20210514 (Red Hat 8.5.0-10) (GCC)) #1 SMP Sat Aug 27 02:44:20 EDT 2022


  ******  HSPICE Threads Information  ******

  Command Line Threads Count :     1
  Available CPU Count        :     8
  Actual Threads Count       :     1


  ******  Circuit Statistics  ******
  # nodes       =   24179 # elements   =    5346
  # resistors   =       0 # capacitors =      16 # inductors   =       0
  # mutual_inds =       0 # vccs       =       0 # vcvs        =       0
  # cccs        =       0 # ccvs       =       0 # volt_srcs   =      18
  # curr_srcs   =       0 # diodes     =       0 # bjts        =       0
  # jfets       =       0 # mosfets    =    5312 # U elements  =       0
  # T elements  =       0 # W elements =       0 # B elements  =       0
  # S elements  =       0 # P elements =       0 # va device   =       0
  # vector_srcs =       0 # N elements =       0


  ******  Runtime Statistics (seconds)  ******

  analysis           time    # points   tot. iter  conv.iter
  op point           1.57           1          59
  transient       4854.73        1208      941952      269838 rev=      8621
  readin             0.02
  errchk             0.38
  setup              0.41
  output             0.04


           peak memory used        602.34 megabytes
           total cpu time         4857.84 seconds
           total elapsed time     4857.91 seconds
           job started at     18:19:27 04/12/2023
           job ended   at     19:40:25 04/12/2023
           job total runtime      4857.91 seconds


 lic: Release hspice token(s) 
 lic: total license checkout elapse time:        0.05(s)
